* NGSPICE file created from efuse_array_64x8.ext - technology: gf180mcuD

.subckt efuse_array_64x8 VSS VDD SENSE PRESET_N BIT_SEL[0] BIT_SEL[1] BIT_SEL[2] BIT_SEL[3]
+ BIT_SEL[4] BIT_SEL[5] BIT_SEL[6] BIT_SEL[7] BIT_SEL[8] BIT_SEL[9] BIT_SEL[10] BIT_SEL[11]
+ BIT_SEL[12] BIT_SEL[13] BIT_SEL[14] BIT_SEL[15] BIT_SEL[16] BIT_SEL[17] BIT_SEL[18]
+ BIT_SEL[19] BIT_SEL[20] BIT_SEL[21] BIT_SEL[22] BIT_SEL[23] BIT_SEL[24] BIT_SEL[25]
+ BIT_SEL[26] BIT_SEL[27] BIT_SEL[28] BIT_SEL[29] BIT_SEL[30] BIT_SEL[31] BIT_SEL[32]
+ BIT_SEL[33] BIT_SEL[34] BIT_SEL[35] BIT_SEL[36] BIT_SEL[37] BIT_SEL[38] BIT_SEL[39]
+ BIT_SEL[40] BIT_SEL[41] BIT_SEL[42] BIT_SEL[43] BIT_SEL[44] BIT_SEL[45] BIT_SEL[46]
+ BIT_SEL[47] BIT_SEL[48] BIT_SEL[49] BIT_SEL[50] BIT_SEL[51] BIT_SEL[52] BIT_SEL[53]
+ BIT_SEL[54] BIT_SEL[55] BIT_SEL[56] BIT_SEL[57] BIT_SEL[58] BIT_SEL[59] BIT_SEL[60]
+ BIT_SEL[61] BIT_SEL[62] BIT_SEL[63] COL_PROG_N[0] OUT[0] COL_PROG_N[1] OUT[1] COL_PROG_N[2]
+ OUT[2] COL_PROG_N[3] OUT[3] COL_PROG_N[4] OUT[4] COL_PROG_N[5] OUT[5] COL_PROG_N[6]
+ OUT[6] COL_PROG_N[7] OUT[7]
X0 a_20810_53554.t0 a_638_51026.t21 efuse
X1 a_638_43149.t8 a_14320_39641.t0 efuse
X2 VSS.t22 BIT_SEL[50].t0 a_20810_20781.t0 VSS.t14 nfet_06v0 ad=13.42p pd=61.88u as=13.42p ps=61.88u w=30.5u l=0.6u
X3 a_20810_3154.t0 BIT_SEL[49].t0 VSS.t374 VSS.t14 nfet_06v0 ad=13.42p pd=61.88u as=13.42p ps=61.88u w=30.5u l=0.6u
X4 a_638_11641.t68 a_20810_9766.t1 efuse
X5 a_20810_52657.t0 a_638_51026.t40 efuse
X6 a_7738_35589.t1 a_638_35272.t57 efuse
X7 a_14320_30291.t0 a_638_27395.t12 efuse
X8 a_14320_5027.t1 a_638_3764.t41 efuse
X9 VDD a_110_52624.t1 a_154_52536.t0 VDD pfet_06v0 ad=0.5368p pd=3.32u as=0.5368p ps=3.32u w=1.22u l=1u
X10 a_14320_41274.t1 BIT_SEL[39].t0 VSS.t595 VSS.t3 nfet_06v0 ad=13.42p pd=61.88u as=13.42p ps=61.88u w=30.5u l=0.6u
X11 a_638_19518.t60 a_20810_17275.t1 efuse
X12 a_1340_9029.t0 BIT_SEL[11].t0 VSS.t294 VSS.t84 nfet_06v0 ad=13.42p pd=61.88u as=13.42p ps=61.88u w=30.5u l=0.6u
X13 a_638_27395.t10 a_20810_25520.t0 efuse
X14 a_14320_46045.t0 a_638_43149.t13 efuse
X15 a_110_29441.t0 a_154_29353.t1 VSS.t330 VSS.t0 nfet_06v0 ad=0.3608p pd=2.52u as=0.3608p ps=2.52u w=0.82u l=1u
X16 a_638_3764.t55 a_20810_256.t1 efuse
X17 a_638_11641.t12 a_7830_9029.t0 efuse
X18 a_638_11641.t8 a_1340_8501.t0 efuse
X19 a_1340_53922.t0 a_638_51026.t6 efuse
X20 a_638_35272.t8 a_20810_33029.t1 efuse
X21 a_7830_25152.t1 BIT_SEL[25].t0 VSS.t324 VSS.t23 nfet_06v0 ad=13.42p pd=61.88u as=13.42p ps=61.88u w=30.5u l=0.6u
X22 a_638_19518.t57 a_1340_18908.t1 efuse
X23 VDD a_110_6258.t1 a_154_6170.t0 VDD pfet_06v0 ad=0.5368p pd=3.32u as=0.5368p ps=3.32u w=1.22u l=1u
X24 VDD a_110_61397.t1 a_154_61309.t0 VDD pfet_06v0 ad=0.5368p pd=3.32u as=0.5368p ps=3.32u w=1.22u l=1u
X25 VDD a_110_49568.t2 OUT[6].t1 VDD pfet_06v0 ad=0.5368p pd=3.32u as=0.5368p ps=3.32u w=1.22u l=0.5u
X26 VSS.t357 BIT_SEL[52].t0 a_20810_36903.t0 VSS.t14 nfet_06v0 ad=13.42p pd=61.88u as=13.42p ps=61.88u w=30.5u l=0.6u
X27 a_110_16188.t0 a_154_16100.t1 VSS.t498 VSS.t0 nfet_06v0 ad=0.3608p pd=2.52u as=0.3608p ps=2.52u w=0.82u l=1u
X28 VSS.t21 BIT_SEL[50].t1 a_20810_52289.t0 VSS.t14 nfet_06v0 ad=13.42p pd=61.88u as=13.42p ps=61.88u w=30.5u l=0.6u
X29 VSS.t124 BIT_SEL[38].t0 a_14320_13801.t1 VSS.t3 nfet_06v0 ad=13.42p pd=61.88u as=13.42p ps=61.88u w=30.5u l=0.6u
X30 a_638_43149.t15 a_20810_41274.t0 efuse
X31 a_7830_25520.t1 BIT_SEL[23].t0 VSS.t499 VSS.t23 nfet_06v0 ad=13.42p pd=61.88u as=13.42p ps=61.88u w=30.5u l=0.6u
X32 VDD a_110_434.t1 a_154_346.t0 VDD pfet_06v0 ad=0.5368p pd=3.32u as=0.5368p ps=3.32u w=1.22u l=1u
X33 a_638_35272.t48 a_1340_34662.t1 efuse
X34 VSS.t603 BIT_SEL[54].t0 a_20810_37432.t0 VSS.t14 nfet_06v0 ad=13.42p pd=61.88u as=13.42p ps=61.88u w=30.5u l=0.6u
X35 VSS.t123 a_110_34710.t6 a_110_33814.t0 VSS.t0 nfet_06v0 ad=0.3608p pd=2.52u as=0.3608p ps=2.52u w=0.82u l=0.6u
X36 a_638_27395.t18 a_1340_24255.t0 efuse
X37 a_638_27395.t50 a_7830_24783.t1 efuse
X38 VSS.t358 BIT_SEL[52].t1 a_20810_52657.t1 VSS.t14 nfet_06v0 ad=13.42p pd=61.88u as=13.42p ps=61.88u w=30.5u l=0.6u
X39 a_20810_40906.t1 BIT_SEL[57].t0 VSS.t69 VSS.t14 nfet_06v0 ad=13.42p pd=61.88u as=13.42p ps=61.88u w=30.5u l=0.6u
X40 VSS.t436 BIT_SEL[60].t0 a_20810_7189.t0 VSS.t14 nfet_06v0 ad=13.42p pd=61.88u as=13.42p ps=61.88u w=30.5u l=0.6u
X41 a_14320_52657.t1 a_638_51026.t60 efuse
X42 a_638_43149.t7 a_7830_40537.t0 efuse
X43 VSS.t521 BIT_SEL[58].t0 a_20810_38168.t0 VSS.t14 nfet_06v0 ad=13.42p pd=61.88u as=13.42p ps=61.88u w=30.5u l=0.6u
X44 a_638_58903.t57 a_7830_55395.t1 efuse
X45 a_638_43149.t18 a_1340_40009.t0 efuse
X46 a_110_24961.t0 a_154_24873.t1 VSS.t292 VSS.t0 nfet_06v0 ad=0.3608p pd=2.52u as=0.3608p ps=2.52u w=0.82u l=1u
X47 VDD a_110_21116.t1 a_154_21028.t0 VDD pfet_06v0 ad=0.5368p pd=3.32u as=0.5368p ps=3.32u w=1.22u l=1u
X48 a_1340_1889.t1 BIT_SEL[7].t0 VSS.t278 VSS.t84 nfet_06v0 ad=13.42p pd=61.88u as=13.42p ps=61.88u w=30.5u l=0.6u
X49 a_7830_52289.t0 a_638_51026.t8 efuse
X50 a_20810_26417.t1 BIT_SEL[51].t0 VSS.t119 VSS.t14 nfet_06v0 ad=13.42p pd=61.88u as=13.42p ps=61.88u w=30.5u l=0.6u
X51 VSS.t589 a_110_2306.t2 OUT[0].t0 VSS.t0 nfet_06v0 ad=0.3608p pd=2.52u as=0.3608p ps=2.52u w=0.82u l=0.6u
X52 VSS.t125 BIT_SEL[38].t1 a_14320_45309.t1 VSS.t3 nfet_06v0 ad=13.42p pd=61.88u as=13.42p ps=61.88u w=30.5u l=0.6u
X53 a_638_19518.t20 a_14320_17275.t0 efuse
X54 VSS.t419 BIT_SEL[62].t0 a_20810_7557.t1 VSS.t14 nfet_06v0 ad=13.42p pd=61.88u as=13.42p ps=61.88u w=30.5u l=0.6u
X55 VDD a_110_10183.t2 a_110_11079.t1 VDD pfet_06v0 ad=0.5368p pd=3.32u as=0.5368p ps=3.32u w=1.22u l=0.5u
X56 a_1340_57028.t1 BIT_SEL[7].t1 VSS.t279 VSS.t84 nfet_06v0 ad=13.42p pd=61.88u as=13.42p ps=61.88u w=30.5u l=0.6u
X57 a_638_11641.t13 a_1340_10294.t0 efuse
X58 a_110_40715.t0 a_154_40627.t1 VSS.t409 VSS.t0 nfet_06v0 ad=0.3608p pd=2.52u as=0.3608p ps=2.52u w=0.82u l=1u
X59 VSS.t162 BIT_SEL[14].t0 a_1340_23311.t0 VSS.t84 nfet_06v0 ad=13.42p pd=61.88u as=13.42p ps=61.88u w=30.5u l=0.6u
X60 a_110_5810.t0 a_154_5722.t1 VSS.t315 VSS.t0 nfet_06v0 ad=0.3608p pd=2.52u as=0.3608p ps=2.52u w=0.82u l=1u
X61 a_14320_60166.t1 a_638_58903.t52 efuse
X62 a_20810_26785.t0 BIT_SEL[49].t1 VSS.t331 VSS.t14 nfet_06v0 ad=13.42p pd=61.88u as=13.42p ps=61.88u w=30.5u l=0.6u
X63 VSS.t536 BIT_SEL[40].t0 a_14320_45677.t1 VSS.t3 nfet_06v0 ad=13.42p pd=61.88u as=13.42p ps=61.88u w=30.5u l=0.6u
X64 a_638_35272.t4 a_14320_33029.t0 efuse
X65 a_20810_15434.t0 a_638_11641.t3 efuse
X66 a_638_51026.t1 a_20810_48414.t0 efuse
X67 a_638_51026.t18 a_20810_47518.t0 efuse
X68 VSS.t522 BIT_SEL[48].t0 a_20718_19835.t0 VSS.t14 nfet_06v0 ad=13.42p pd=61.88u as=13.42p ps=61.88u w=30.5u l=0.6u
X69 a_7830_22046.t1 a_638_19518.t54 efuse
X70 a_638_3764.t32 COL_PROG_N[0].t0 VDD.t184 VDD.t82 pfet_06v0 ad=9.945p pd=38.77u as=9.945p ps=38.77u w=38.25u l=0.5u
X71 a_110_62741.t0 a_154_62653.t1 VSS.t320 VSS.t0 nfet_06v0 ad=0.3608p pd=2.52u as=0.3608p ps=2.52u w=0.82u l=1u
X72 a_1340_23887.t1 BIT_SEL[15].t0 VSS.t332 VSS.t84 nfet_06v0 ad=13.42p pd=61.88u as=13.42p ps=61.88u w=30.5u l=0.6u
X73 a_20810_42539.t0 BIT_SEL[49].t2 VSS.t378 VSS.t14 nfet_06v0 ad=13.42p pd=61.88u as=13.42p ps=61.88u w=30.5u l=0.6u
X74 a_7830_7189.t0 a_638_3764.t0 efuse
X75 VSS.t537 BIT_SEL[40].t1 a_14320_61431.t1 VSS.t3 nfet_06v0 ad=13.42p pd=61.88u as=13.42p ps=61.88u w=30.5u l=0.6u
X76 VSS.t344 BIT_SEL[22].t0 a_7830_29555.t0 VSS.t23 nfet_06v0 ad=13.42p pd=61.88u as=13.42p ps=61.88u w=30.5u l=0.6u
X77 a_638_27395.t61 a_1340_26048.t1 efuse
X78 VSS.t316 BIT_SEL[20].t0 a_7830_44780.t0 VSS.t23 nfet_06v0 ad=13.42p pd=61.88u as=13.42p ps=61.88u w=30.5u l=0.6u
X79 VSS.t359 BIT_SEL[52].t2 a_20810_21149.t0 VSS.t14 nfet_06v0 ad=13.42p pd=61.88u as=13.42p ps=61.88u w=30.5u l=0.6u
X80 a_7830_37800.t0 a_638_35272.t2 efuse
X81 a_20810_31188.t0 a_638_27395.t13 efuse
X82 a_638_43149.t16 a_1340_41802.t0 efuse
X83 VDD a_110_37318.t1 a_154_37230.t0 VDD pfet_06v0 ad=0.5368p pd=3.32u as=0.5368p ps=3.32u w=1.22u l=1u
X84 a_638_3764.t5 a_14320_3154.t0 efuse
X85 VSS.t4 BIT_SEL[34].t0 a_14320_12904.t0 VSS.t3 nfet_06v0 ad=13.42p pd=61.88u as=13.42p ps=61.88u w=30.5u l=0.6u
X86 a_638_58903.t3 a_7830_57028.t0 efuse
X87 a_20810_58293.t0 BIT_SEL[49].t3 VSS.t581 VSS.t14 nfet_06v0 ad=13.42p pd=61.88u as=13.42p ps=61.88u w=30.5u l=0.6u
X88 a_110_36198.t0 a_154_36110.t1 VSS.t275 VSS.t0 nfet_06v0 ad=0.3608p pd=2.52u as=0.3608p ps=2.52u w=0.82u l=1u
X89 VDD a_110_26833.t6 a_110_25937.t1 VDD pfet_06v0 ad=0.5368p pd=3.32u as=0.5368p ps=3.32u w=1.22u l=0.5u
X90 a_20810_46942.t0 a_638_43149.t9 efuse
X91 a_1340_55395.t1 BIT_SEL[15].t1 VSS.t333 VSS.t84 nfet_06v0 ad=13.42p pd=61.88u as=13.42p ps=61.88u w=30.5u l=0.6u
X92 VDD a_110_32390.t1 a_154_32302.t0 VDD pfet_06v0 ad=0.5368p pd=3.32u as=0.5368p ps=3.32u w=1.22u l=1u
X93 a_14320_6292.t0 a_638_3764.t2 efuse
X94 a_7830_18908.t0 BIT_SEL[17].t0 VSS.t559 VSS.t23 nfet_06v0 ad=13.42p pd=61.88u as=13.42p ps=61.88u w=30.5u l=0.6u
X95 VSS.t572 BIT_SEL[56].t0 a_20810_6292.t0 VSS.t14 nfet_06v0 ad=13.42p pd=61.88u as=13.42p ps=61.88u w=30.5u l=0.6u
X96 a_110_8759.t0 a_154_8671.t1 VSS.t274 VSS.t0 nfet_06v0 ad=0.3608p pd=2.52u as=0.3608p ps=2.52u w=0.82u l=1u
X97 a_20810_14537.t0 a_638_11641.t5 efuse
X98 a_20810_13801.t1 a_638_11641.t65 efuse
X99 VSS.t367 BIT_SEL[40].t2 a_14320_14169.t1 VSS.t3 nfet_06v0 ad=13.42p pd=61.88u as=13.42p ps=61.88u w=30.5u l=0.6u
X100 a_1340_55763.t0 BIT_SEL[13].t0 VSS.t233 VSS.t84 nfet_06v0 ad=13.42p pd=61.88u as=13.42p ps=61.88u w=30.5u l=0.6u
X101 a_14320_15434.t1 a_638_11641.t64 efuse
X102 VSS.t196 BIT_SEL[16].t0 a_7738_11958.t1 VSS.t23 nfet_06v0 ad=13.42p pd=61.88u as=13.42p ps=61.88u w=30.5u l=0.6u
X103 a_638_51026.t2 a_14320_48414.t1 efuse
X104 a_110_31233.t0 a_154_31145.t1 VSS.t67 VSS.t0 nfet_06v0 ad=0.3608p pd=2.52u as=0.3608p ps=2.52u w=0.82u l=1u
X105 a_1340_33925.t0 BIT_SEL[5].t0 VSS.t226 VSS.t84 nfet_06v0 ad=13.42p pd=61.88u as=13.42p ps=61.88u w=30.5u l=0.6u
X106 VDD a_110_32838.t1 a_154_32750.t0 VDD pfet_06v0 ad=0.5368p pd=3.32u as=0.5368p ps=3.32u w=1.22u l=1u
X107 VSS.t266 BIT_SEL[42].t0 a_14320_14537.t1 VSS.t3 nfet_06v0 ad=13.42p pd=61.88u as=13.42p ps=61.88u w=30.5u l=0.6u
X108 VDD a_110_58341.t6 a_110_57445.t1 VDD pfet_06v0 ad=0.5368p pd=3.32u as=0.5368p ps=3.32u w=1.22u l=0.5u
X109 a_20810_30291.t0 a_638_27395.t7 efuse
X110 a_1340_1521.t0 BIT_SEL[9].t0 VSS.t218 VSS.t84 nfet_06v0 ad=13.42p pd=61.88u as=13.42p ps=61.88u w=30.5u l=0.6u
X111 a_20810_29555.t0 a_638_27395.t5 efuse
X112 a_1340_21149.t0 a_638_19518.t2 efuse
X113 a_638_3764.t6 a_20810_2417.t0 efuse
X114 a_1340_15066.t0 a_638_11641.t4 efuse
X115 a_638_58903.t8 a_14320_55763.t0 efuse
X116 a_20810_41274.t1 BIT_SEL[55].t0 VSS.t210 VSS.t14 nfet_06v0 ad=13.42p pd=61.88u as=13.42p ps=61.88u w=30.5u l=0.6u
X117 VSS.t410 BIT_SEL[32].t0 a_14228_4081.t1 VSS.t3 nfet_06v0 ad=13.42p pd=61.88u as=13.42p ps=61.88u w=30.5u l=0.6u
X118 VSS.t5 BIT_SEL[34].t1 a_14320_60166.t0 VSS.t3 nfet_06v0 ad=13.42p pd=61.88u as=13.42p ps=61.88u w=30.5u l=0.6u
X119 VDD a_110_54864.t1 a_154_54776.t0 VDD pfet_06v0 ad=0.5368p pd=3.32u as=0.5368p ps=3.32u w=1.22u l=1u
X120 a_14320_31188.t0 a_638_27395.t9 efuse
X121 a_20810_46045.t0 a_638_43149.t3 efuse
X122 VDD PRESET_N.t0 a_110_34710.t2 VDD pfet_06v0 ad=0.3172p pd=1.74u as=0.4575p ps=1.97u w=1.22u l=0.5u
X123 VSS.t153 BIT_SEL[12].t0 a_1340_22943.t0 VSS.t84 nfet_06v0 ad=13.42p pd=61.88u as=13.42p ps=61.88u w=30.5u l=0.6u
X124 VDD a_110_48592.t1 a_154_48504.t0 VDD pfet_06v0 ad=0.5368p pd=3.32u as=0.5368p ps=3.32u w=1.22u l=1u
X125 a_20810_45309.t0 a_638_43149.t32 efuse
X126 a_20810_8133.t0 BIT_SEL[63].t0 VSS.t336 VSS.t14 nfet_06v0 ad=13.42p pd=61.88u as=13.42p ps=61.88u w=30.5u l=0.6u
X127 a_638_11641.t2 a_7830_10663.t0 efuse
X128 a_1340_36903.t0 a_638_35272.t50 efuse
X129 VSS.t269 BIT_SEL[36].t0 a_14320_60534.t0 VSS.t3 nfet_06v0 ad=13.42p pd=61.88u as=13.42p ps=61.88u w=30.5u l=0.6u
X130 VSS.t197 BIT_SEL[16].t1 a_7738_43466.t1 VSS.t23 nfet_06v0 ad=13.42p pd=61.88u as=13.42p ps=61.88u w=30.5u l=0.6u
X131 a_14320_46942.t0 a_638_43149.t10 efuse
X132 VSS.t604 BIT_SEL[54].t1 a_20810_13801.t0 VSS.t14 nfet_06v0 ad=13.42p pd=61.88u as=13.42p ps=61.88u w=30.5u l=0.6u
X133 a_1340_30820.t1 a_638_27395.t8 efuse
X134 a_20810_12904.t1 a_638_11641.t62 efuse
X135 a_1340_54819.t1 a_638_51026.t54 efuse
X136 VSS.t267 BIT_SEL[42].t1 a_14320_46045.t1 VSS.t3 nfet_06v0 ad=13.42p pd=61.88u as=13.42p ps=61.88u w=30.5u l=0.6u
X137 VDD a_110_9207.t1 a_154_9119.t0 VDD pfet_06v0 ad=0.5368p pd=3.32u as=0.5368p ps=3.32u w=1.22u l=1u
X138 VSS.t455 BIT_SEL[18].t0 a_7830_44412.t0 VSS.t23 nfet_06v0 ad=13.42p pd=61.88u as=13.42p ps=61.88u w=30.5u l=0.6u
X139 a_638_27395.t62 a_7830_26417.t1 efuse
X140 a_1340_24255.t1 BIT_SEL[13].t1 VSS.t234 VSS.t84 nfet_06v0 ad=13.42p pd=61.88u as=13.42p ps=61.88u w=30.5u l=0.6u
X141 a_14320_13801.t0 a_638_11641.t6 efuse
X142 VSS.t480 BIT_SEL[0].t0 a_1248_59220.t1 VSS.t84 nfet_06v0 ad=13.42p pd=61.88u as=13.42p ps=61.88u w=30.5u l=0.6u
X143 a_638_51026.t10 a_7830_49679.t0 efuse
X144 a_1340_46574.t1 a_638_43149.t65 efuse
X145 a_14320_34294.t1 BIT_SEL[35].t0 VSS.t488 VSS.t3 nfet_06v0 ad=13.42p pd=61.88u as=13.42p ps=61.88u w=30.5u l=0.6u
X146 a_638_3764.t1 a_1340_256.t0 efuse
X147 a_7830_62696.t0 a_638_58903.t1 efuse
X148 a_638_58903.t16 SENSE.t0 a_110_58341.t0 VSS.t0 nfet_06v0 ad=0.3608p pd=2.52u as=0.3608p ps=2.52u w=0.82u l=0.6u
X149 a_638_51026.t11 a_7830_50416.t1 efuse
X150 VSS.t435 a_110_33814.t2 OUT[4].t0 VSS.t0 nfet_06v0 ad=0.3608p pd=2.52u as=0.3608p ps=2.52u w=0.82u l=0.6u
X151 a_20810_28658.t0 a_638_27395.t0 efuse
X152 a_110_1330.t0 a_154_1242.t1 VSS.t385 VSS.t0 nfet_06v0 ad=0.3608p pd=2.52u as=0.3608p ps=2.52u w=0.82u l=1u
X153 a_638_58903.t54 a_14320_57556.t0 efuse
X154 a_638_43149.t48 a_7830_42171.t1 efuse
X155 a_14320_34662.t0 BIT_SEL[33].t0 VSS.t386 VSS.t3 nfet_06v0 ad=13.42p pd=61.88u as=13.42p ps=61.88u w=30.5u l=0.6u
X156 a_7830_33397.t1 BIT_SEL[23].t1 VSS.t500 VSS.t23 nfet_06v0 ad=13.42p pd=61.88u as=13.42p ps=61.88u w=30.5u l=0.6u
X157 a_1340_32660.t1 BIT_SEL[11].t1 VSS.t295 VSS.t84 nfet_06v0 ad=13.42p pd=61.88u as=13.42p ps=61.88u w=30.5u l=0.6u
X158 a_14320_29555.t0 a_638_27395.t52 efuse
X159 VDD a_110_23356.t1 a_154_23268.t0 VDD pfet_06v0 ad=0.5368p pd=3.32u as=0.5368p ps=3.32u w=1.22u l=1u
X160 VSS.t270 BIT_SEL[36].t1 a_14320_13272.t1 VSS.t3 nfet_06v0 ad=13.42p pd=61.88u as=13.42p ps=61.88u w=30.5u l=0.6u
X161 VSS.t300 BIT_SEL[54].t2 a_20810_45309.t1 VSS.t14 nfet_06v0 ad=13.42p pd=61.88u as=13.42p ps=61.88u w=30.5u l=0.6u
X162 VSS.t472 a_110_42587.t6 a_110_41691.t0 VSS.t0 nfet_06v0 ad=0.3608p pd=2.52u as=0.3608p ps=2.52u w=0.82u l=0.6u
X163 a_20810_44412.t0 a_638_43149.t4 efuse
X164 a_1340_18171.t0 BIT_SEL[5].t1 VSS.t227 VSS.t84 nfet_06v0 ad=13.42p pd=61.88u as=13.42p ps=61.88u w=30.5u l=0.6u
X165 a_7830_18540.t0 BIT_SEL[19].t0 VSS.t49 VSS.t23 nfet_06v0 ad=13.42p pd=61.88u as=13.42p ps=61.88u w=30.5u l=0.6u
X166 a_14320_6660.t0 a_638_3764.t4 efuse
X167 VDD a_110_17084.t1 a_154_16996.t0 VDD pfet_06v0 ad=0.5368p pd=3.32u as=0.5368p ps=3.32u w=1.22u l=1u
X168 a_14320_45309.t0 a_638_43149.t11 efuse
X169 VSS.t573 BIT_SEL[56].t1 a_20810_45677.t0 VSS.t14 nfet_06v0 ad=13.42p pd=61.88u as=13.42p ps=61.88u w=30.5u l=0.6u
X170 a_7830_41802.t0 BIT_SEL[21].t0 VSS.t587 VSS.t23 nfet_06v0 ad=13.42p pd=61.88u as=13.42p ps=61.88u w=30.5u l=0.6u
X171 a_638_11641.t31 a_1340_9398.t1 efuse
X172 a_1340_53186.t0 a_638_51026.t3 efuse
X173 VSS.t85 BIT_SEL[10].t0 a_1340_6660.t0 VSS.t84 nfet_06v0 ad=13.42p pd=61.88u as=13.42p ps=61.88u w=30.5u l=0.6u
X174 a_638_19518.t1 a_1340_16906.t0 efuse
X175 a_7738_11958.t0 a_638_11641.t0 efuse
X176 a_110_61845.t0 a_154_61757.t1 VSS.t193 VSS.t0 nfet_06v0 ad=0.3608p pd=2.52u as=0.3608p ps=2.52u w=0.82u l=1u
X177 VSS.t574 BIT_SEL[56].t2 a_20810_61431.t0 VSS.t14 nfet_06v0 ad=13.42p pd=61.88u as=13.42p ps=61.88u w=30.5u l=0.6u
X178 a_7830_61799.t0 a_638_58903.t4 efuse
X179 a_1340_61431.t0 a_638_58903.t18 efuse
X180 a_7830_61063.t1 a_638_58903.t24 efuse
X181 VSS.t481 BIT_SEL[0].t1 a_1248_27712.t0 VSS.t84 nfet_06v0 ad=13.42p pd=61.88u as=13.42p ps=61.88u w=30.5u l=0.6u
X182 a_638_27395.t21 SENSE.t1 a_110_26833.t0 VSS.t0 nfet_06v0 ad=0.3608p pd=2.52u as=0.3608p ps=2.52u w=0.82u l=0.6u
X183 a_110_55573.t0 a_154_55485.t1 VSS.t471 VSS.t0 nfet_06v0 ad=0.3608p pd=2.52u as=0.3608p ps=2.52u w=0.82u l=1u
X184 a_638_27395.t11 a_1340_25152.t1 efuse
X185 a_1340_50048.t0 BIT_SEL[3].t0 VSS.t511 VSS.t84 nfet_06v0 ad=13.42p pd=61.88u as=13.42p ps=61.88u w=30.5u l=0.6u
X186 a_638_35272.t62 COL_PROG_N[4].t0 VDD.t251 VDD.t4 pfet_06v0 ad=16.83p pd=77.38u as=9.945p ps=38.77u w=38.25u l=0.5u
X187 a_638_35272.t7 a_1340_32660.t0 efuse
X188 VSS.t20 BIT_SEL[50].t2 a_20810_12904.t0 VSS.t14 nfet_06v0 ad=13.42p pd=61.88u as=13.42p ps=61.88u w=30.5u l=0.6u
X189 VSS.t463 BIT_SEL[2].t0 a_1340_28658.t0 VSS.t84 nfet_06v0 ad=13.42p pd=61.88u as=13.42p ps=61.88u w=30.5u l=0.6u
X190 a_7738_27712.t0 a_638_27395.t2 efuse
X191 a_638_43149.t59 a_1340_40906.t1 efuse
X192 a_638_43149.t19 SENSE.t2 a_110_42587.t4 VSS.t0 nfet_06v0 ad=0.3608p pd=2.52u as=0.3608p ps=2.52u w=0.82u l=0.6u
X193 VSS.t136 BIT_SEL[44].t0 a_14320_38697.t1 VSS.t3 nfet_06v0 ad=13.42p pd=61.88u as=13.42p ps=61.88u w=30.5u l=0.6u
X194 VSS.t6 BIT_SEL[34].t2 a_14320_5027.t0 VSS.t3 nfet_06v0 ad=13.42p pd=61.88u as=13.42p ps=61.88u w=30.5u l=0.6u
X195 a_638_11641.t7 a_20810_9398.t0 efuse
X196 a_638_35272.t59 COL_PROG_N[4].t1 VDD.t248 VDD.t82 pfet_06v0 ad=9.945p pd=38.77u as=9.945p ps=38.77u w=38.25u l=0.5u
X197 VDD a_110_25937.t2 OUT[3].t1 VDD pfet_06v0 ad=0.5368p pd=3.32u as=0.5368p ps=3.32u w=1.22u l=0.5u
X198 VSS.t175 a_110_11079.t6 a_110_10183.t0 VSS.t0 nfet_06v0 ad=0.3608p pd=2.52u as=0.3608p ps=2.52u w=0.82u l=0.6u
X199 VSS.t104 a_110_18060.t2 OUT[2].t0 VSS.t0 nfet_06v0 ad=0.3608p pd=2.52u as=0.3608p ps=2.52u w=0.82u l=0.6u
X200 VSS.t137 BIT_SEL[44].t1 a_14320_54451.t1 VSS.t3 nfet_06v0 ad=13.42p pd=61.88u as=13.42p ps=61.88u w=30.5u l=0.6u
X201 a_7738_43466.t0 a_638_43149.t14 efuse
X202 VSS.t404 BIT_SEL[24].t0 a_7830_37800.t1 VSS.t23 nfet_06v0 ad=13.42p pd=61.88u as=13.42p ps=61.88u w=30.5u l=0.6u
X203 a_638_11641.t1 a_1340_11031.t0 efuse
X204 a_110_14583.t0 a_154_14495.t1 VSS.t418 VSS.t0 nfet_06v0 ad=0.3608p pd=2.52u as=0.3608p ps=2.52u w=0.82u l=1u
X205 a_20810_7557.t0 a_638_3764.t53 efuse
X206 a_7830_10294.t0 BIT_SEL[21].t1 VSS.t504 VSS.t23 nfet_06v0 ad=13.42p pd=61.88u as=13.42p ps=61.88u w=30.5u l=0.6u
X207 VSS.t575 BIT_SEL[56].t3 a_20810_14169.t0 VSS.t14 nfet_06v0 ad=13.42p pd=61.88u as=13.42p ps=61.88u w=30.5u l=0.6u
X208 VDD a_110_60501.t1 a_154_60413.t0 VDD pfet_06v0 ad=0.5368p pd=3.32u as=0.5368p ps=3.32u w=1.22u l=1u
X209 a_638_27395.t51 a_20810_25152.t1 efuse
X210 a_14320_40009.t1 BIT_SEL[45].t0 VSS.t256 VSS.t3 nfet_06v0 ad=13.42p pd=61.88u as=13.42p ps=61.88u w=30.5u l=0.6u
X211 a_14320_62328.t0 a_638_58903.t39 efuse
X212 VSS.t502 BIT_SEL[46].t0 a_14320_54819.t0 VSS.t3 nfet_06v0 ad=13.42p pd=61.88u as=13.42p ps=61.88u w=30.5u l=0.6u
X213 a_110_30337.t0 a_154_30249.t1 VSS.t390 VSS.t0 nfet_06v0 ad=0.3608p pd=2.52u as=0.3608p ps=2.52u w=0.82u l=1u
X214 VDD a_110_28321.t1 a_154_28233.t0 VDD pfet_06v0 ad=0.5368p pd=3.32u as=0.5368p ps=3.32u w=1.22u l=1u
X215 VDD.t64 COL_PROG_N[0].t1 a_638_3764.t15 VDD.t10 pfet_06v0 ad=9.945p pd=38.77u as=9.945p ps=38.77u w=38.25u l=0.5u
X216 VSS.t520 BIT_SEL[58].t1 a_20810_14537.t1 VSS.t14 nfet_06v0 ad=13.42p pd=61.88u as=13.42p ps=61.88u w=30.5u l=0.6u
X217 VSS.t163 BIT_SEL[14].t1 a_1340_62696.t0 VSS.t84 nfet_06v0 ad=13.42p pd=61.88u as=13.42p ps=61.88u w=30.5u l=0.6u
X218 a_1248_59220.t0 a_638_58903.t5 efuse
X219 a_1340_33029.t0 BIT_SEL[9].t1 VSS.t219 VSS.t84 nfet_06v0 ad=13.42p pd=61.88u as=13.42p ps=61.88u w=30.5u l=0.6u
X220 VSS.t251 a_110_18060.t3 a_110_18956.t3 VSS.t0 nfet_06v0 ad=0.3608p pd=2.52u as=0.3608p ps=2.52u w=0.82u l=0.6u
X221 a_638_27395.t14 a_1340_26785.t0 efuse
X222 a_1340_7557.t1 a_638_3764.t7 efuse
X223 VSS.t528 BIT_SEL[4].t0 a_1340_5395.t1 VSS.t84 nfet_06v0 ad=13.42p pd=61.88u as=13.42p ps=61.88u w=30.5u l=0.6u
X224 a_638_43149.t5 a_20810_40906.t0 efuse
X225 a_110_24065.t0 a_154_23977.t1 VSS.t393 VSS.t0 nfet_06v0 ad=0.3608p pd=2.52u as=0.3608p ps=2.52u w=0.82u l=1u
X226 a_638_3764.t8 SENSE.t3 a_110_3202.t5 VSS.t0 nfet_06v0 ad=0.3608p pd=2.52u as=0.3608p ps=2.52u w=0.82u l=0.6u
X227 a_14320_2417.t0 BIT_SEL[37].t0 VSS.t33 VSS.t3 nfet_06v0 ad=13.42p pd=61.88u as=13.42p ps=61.88u w=30.5u l=0.6u
X228 a_638_58903.t11 a_20810_55763.t0 efuse
X229 VDD a_110_57445.t2 OUT[7].t1 VDD pfet_06v0 ad=0.5368p pd=3.32u as=0.5368p ps=3.32u w=1.22u l=0.5u
X230 VSS.t126 BIT_SEL[38].t2 a_14320_21678.t0 VSS.t3 nfet_06v0 ad=13.42p pd=61.88u as=13.42p ps=61.88u w=30.5u l=0.6u
X231 VSS.t19 BIT_SEL[50].t3 a_20810_60166.t0 VSS.t14 nfet_06v0 ad=13.42p pd=61.88u as=13.42p ps=61.88u w=30.5u l=0.6u
X232 VDD a_110_53968.t1 a_154_53880.t0 VDD pfet_06v0 ad=0.5368p pd=3.32u as=0.5368p ps=3.32u w=1.22u l=1u
X233 VSS.t397 BIT_SEL[6].t0 a_1340_5924.t0 VSS.t84 nfet_06v0 ad=13.42p pd=61.88u as=13.42p ps=61.88u w=30.5u l=0.6u
X234 a_110_46091.t0 a_154_46003.t1 VSS.t373 VSS.t0 nfet_06v0 ad=0.3608p pd=2.52u as=0.3608p ps=2.52u w=0.82u l=1u
X235 a_638_43149.t0 a_1340_42539.t0 efuse
X236 VSS.t360 BIT_SEL[52].t3 a_20810_60534.t1 VSS.t14 nfet_06v0 ad=13.42p pd=61.88u as=13.42p ps=61.88u w=30.5u l=0.6u
X237 a_1340_48783.t0 BIT_SEL[9].t2 VSS.t220 VSS.t84 nfet_06v0 ad=13.42p pd=61.88u as=13.42p ps=61.88u w=30.5u l=0.6u
X238 a_638_11641.t57 a_14320_9398.t0 efuse
X239 a_110_18956.t2 PRESET_N.t1 VDD VDD pfet_06v0 ad=0.4575p pd=1.97u as=0.5368p ps=3.32u w=1.22u l=0.5u
X240 VDD a_110_47696.t1 a_154_47608.t0 VDD pfet_06v0 ad=0.5368p pd=3.32u as=0.5368p ps=3.32u w=1.22u l=1u
X241 VSS.t596 BIT_SEL[18].t1 a_7830_20781.t1 VSS.t23 nfet_06v0 ad=13.42p pd=61.88u as=13.42p ps=61.88u w=30.5u l=0.6u
X242 a_7830_52657.t1 a_638_51026.t0 efuse
X243 a_638_3764.t3 a_14320_1521.t0 efuse
X244 a_638_58903.t7 a_1340_55395.t0 efuse
X245 VSS.t519 BIT_SEL[58].t2 a_20810_46045.t1 VSS.t14 nfet_06v0 ad=13.42p pd=61.88u as=13.42p ps=61.88u w=30.5u l=0.6u
X246 a_7830_9398.t1 BIT_SEL[25].t1 VSS.t325 VSS.t23 nfet_06v0 ad=13.42p pd=61.88u as=13.42p ps=61.88u w=30.5u l=0.6u
X247 a_14320_49679.t0 BIT_SEL[37].t1 VSS.t34 VSS.t3 nfet_06v0 ad=13.42p pd=61.88u as=13.42p ps=61.88u w=30.5u l=0.6u
X248 VDD PRESET_N.t2 a_110_42587.t2 VDD pfet_06v0 ad=0.3172p pd=1.74u as=0.4575p ps=1.97u w=1.22u l=0.5u
X249 a_20810_34294.t1 BIT_SEL[51].t1 VSS.t120 VSS.t14 nfet_06v0 ad=13.42p pd=61.88u as=13.42p ps=61.88u w=30.5u l=0.6u
X250 a_110_46539.t0 a_154_46451.t1 VSS.t31 VSS.t0 nfet_06v0 ad=0.3608p pd=2.52u as=0.3608p ps=2.52u w=0.82u l=1u
X251 a_638_27395.t6 a_14320_25152.t0 efuse
X252 a_7830_14169.t1 a_638_11641.t34 efuse
X253 VSS.t127 BIT_SEL[38].t3 a_14320_53186.t1 VSS.t3 nfet_06v0 ad=13.42p pd=61.88u as=13.42p ps=61.88u w=30.5u l=0.6u
X254 a_7830_9766.t1 BIT_SEL[23].t2 VSS.t501 VSS.t23 nfet_06v0 ad=13.42p pd=61.88u as=13.42p ps=61.88u w=30.5u l=0.6u
X255 VSS.t164 BIT_SEL[14].t2 a_1340_31188.t0 VSS.t84 nfet_06v0 ad=13.42p pd=61.88u as=13.42p ps=61.88u w=30.5u l=0.6u
X256 a_1340_16010.t1 BIT_SEL[15].t2 VSS.t334 VSS.t84 nfet_06v0 ad=13.42p pd=61.88u as=13.42p ps=61.88u w=30.5u l=0.6u
X257 a_20810_34662.t0 BIT_SEL[49].t4 VSS.t375 VSS.t14 nfet_06v0 ad=13.42p pd=61.88u as=13.42p ps=61.88u w=30.5u l=0.6u
X258 a_638_58903.t2 a_20810_57556.t0 efuse
X259 VSS.t368 BIT_SEL[40].t3 a_14320_53554.t1 VSS.t3 nfet_06v0 ad=13.42p pd=61.88u as=13.42p ps=61.88u w=30.5u l=0.6u
X260 a_14228_4081.t0 a_638_3764.t14 efuse
X261 a_110_12567.t0 a_154_12479.t1 VSS.t132 VSS.t0 nfet_06v0 ad=0.3608p pd=2.52u as=0.3608p ps=2.52u w=0.82u l=1u
X262 a_638_58903.t53 a_20810_58293.t1 efuse
X263 VSS.t597 BIT_SEL[18].t2 a_7830_52289.t1 VSS.t23 nfet_06v0 ad=13.42p pd=61.88u as=13.42p ps=61.88u w=30.5u l=0.6u
X264 a_638_43149.t6 a_14320_40906.t0 efuse
X265 VSS.t317 BIT_SEL[20].t1 a_7830_36903.t0 VSS.t23 nfet_06v0 ad=13.42p pd=61.88u as=13.42p ps=61.88u w=30.5u l=0.6u
X266 VSS.t361 BIT_SEL[52].t4 a_20810_13272.t0 VSS.t14 nfet_06v0 ad=13.42p pd=61.88u as=13.42p ps=61.88u w=30.5u l=0.6u
X267 a_14320_16906.t0 BIT_SEL[43].t0 VSS.t28 VSS.t3 nfet_06v0 ad=13.42p pd=61.88u as=13.42p ps=61.88u w=30.5u l=0.6u
X268 a_1340_31764.t0 BIT_SEL[15].t3 VSS.t547 VSS.t84 nfet_06v0 ad=13.42p pd=61.88u as=13.42p ps=61.88u w=30.5u l=0.6u
X269 VSS.t443 BIT_SEL[4].t1 a_1340_29026.t0 VSS.t84 nfet_06v0 ad=13.42p pd=61.88u as=13.42p ps=61.88u w=30.5u l=0.6u
X270 a_7830_29923.t0 a_638_27395.t3 efuse
X271 VSS.t105 BIT_SEL[46].t1 a_14320_39065.t0 VSS.t3 nfet_06v0 ad=13.42p pd=61.88u as=13.42p ps=61.88u w=30.5u l=0.6u
X272 VSS.t345 BIT_SEL[22].t1 a_7830_37432.t0 VSS.t23 nfet_06v0 ad=13.42p pd=61.88u as=13.42p ps=61.88u w=30.5u l=0.6u
X273 VDD a_110_29441.t1 a_154_29353.t0 VDD pfet_06v0 ad=0.5368p pd=3.32u as=0.5368p ps=3.32u w=1.22u l=1u
X274 VSS.t318 BIT_SEL[20].t2 a_7830_52657.t0 VSS.t23 nfet_06v0 ad=13.42p pd=61.88u as=13.42p ps=61.88u w=30.5u l=0.6u
X275 a_638_19518.t16 a_7830_16010.t1 efuse
X276 a_110_11079.t3 PRESET_N.t3 VDD VDD pfet_06v0 ad=0.5368p pd=3.32u as=0.3172p ps=1.74u w=1.22u l=0.5u
X277 a_1340_17275.t0 BIT_SEL[9].t3 VSS.t221 VSS.t84 nfet_06v0 ad=13.42p pd=61.88u as=13.42p ps=61.88u w=30.5u l=0.6u
X278 a_7830_45677.t0 a_638_43149.t1 efuse
X279 VDD a_110_16188.t1 a_154_16100.t0 VDD pfet_06v0 ad=0.5368p pd=3.32u as=0.5368p ps=3.32u w=1.22u l=1u
X280 a_14320_39641.t1 BIT_SEL[47].t0 VSS.t112 VSS.t3 nfet_06v0 ad=13.42p pd=61.88u as=13.42p ps=61.88u w=30.5u l=0.6u
X281 a_638_58903.t10 a_1340_57028.t0 efuse
X282 a_7830_40906.t1 BIT_SEL[25].t2 VSS.t326 VSS.t23 nfet_06v0 ad=13.42p pd=61.88u as=13.42p ps=61.88u w=30.5u l=0.6u
X283 VSS.t44 BIT_SEL[26].t0 a_7830_38168.t1 VSS.t23 nfet_06v0 ad=13.42p pd=61.88u as=13.42p ps=61.88u w=30.5u l=0.6u
X284 a_1340_17643.t1 BIT_SEL[7].t2 VSS.t280 VSS.t84 nfet_06v0 ad=13.42p pd=61.88u as=13.42p ps=61.88u w=30.5u l=0.6u
X285 a_638_35272.t1 a_7830_31764.t0 efuse
X286 VDD a_110_34710.t7 a_110_33814.t1 VDD pfet_06v0 ad=0.5368p pd=3.32u as=0.5368p ps=3.32u w=1.22u l=0.5u
X287 a_7830_26417.t0 BIT_SEL[19].t1 VSS.t50 VSS.t23 nfet_06v0 ad=13.42p pd=61.88u as=13.42p ps=61.88u w=30.5u l=0.6u
X288 a_14320_20781.t1 a_638_19518.t56 efuse
X289 a_110_60949.t0 a_154_60861.t1 VSS.t12 VSS.t0 nfet_06v0 ad=0.3608p pd=2.52u as=0.3608p ps=2.52u w=0.82u l=1u
X290 a_110_44075.t0 a_154_43987.t1 VSS.t347 VSS.t0 nfet_06v0 ad=0.3608p pd=2.52u as=0.3608p ps=2.52u w=0.82u l=1u
X291 a_14320_48414.t0 BIT_SEL[43].t1 VSS.t29 VSS.t3 nfet_06v0 ad=13.42p pd=61.88u as=13.42p ps=61.88u w=30.5u l=0.6u
X292 a_14320_36535.t1 a_638_35272.t11 efuse
X293 a_7830_26785.t0 BIT_SEL[17].t1 VSS.t560 VSS.t23 nfet_06v0 ad=13.42p pd=61.88u as=13.42p ps=61.88u w=30.5u l=0.6u
X294 a_110_42587.t1 PRESET_N.t4 VDD VDD pfet_06v0 ad=0.5368p pd=3.32u as=0.3172p ps=1.74u w=1.22u l=0.5u
X295 VSS.t437 BIT_SEL[60].t1 a_20810_38697.t1 VSS.t14 nfet_06v0 ad=13.42p pd=61.88u as=13.42p ps=61.88u w=30.5u l=0.6u
X296 VDD a_110_24961.t1 a_154_24873.t0 VDD pfet_06v0 ad=0.5368p pd=3.32u as=0.5368p ps=3.32u w=1.22u l=1u
X297 VSS.t369 BIT_SEL[40].t4 a_14320_22046.t1 VSS.t3 nfet_06v0 ad=13.42p pd=61.88u as=13.42p ps=61.88u w=30.5u l=0.6u
X298 a_7830_8501.t0 BIT_SEL[29].t0 VSS.t36 VSS.t23 nfet_06v0 ad=13.42p pd=61.88u as=13.42p ps=61.88u w=30.5u l=0.6u
X299 a_1340_13272.t0 a_638_11641.t10 efuse
X300 VSS.t198 BIT_SEL[16].t2 a_7738_19835.t0 VSS.t23 nfet_06v0 ad=13.42p pd=61.88u as=13.42p ps=61.88u w=30.5u l=0.6u
X301 a_638_58903.t6 a_14320_58293.t1 efuse
X302 a_7830_42539.t0 BIT_SEL[17].t2 VSS.t561 VSS.t23 nfet_06v0 ad=13.42p pd=61.88u as=13.42p ps=61.88u w=30.5u l=0.6u
X303 a_1340_49151.t1 BIT_SEL[7].t3 VSS.t281 VSS.t84 nfet_06v0 ad=13.42p pd=61.88u as=13.42p ps=61.88u w=30.5u l=0.6u
X304 VDD a_110_40715.t1 a_154_40627.t0 VDD pfet_06v0 ad=0.5368p pd=3.32u as=0.5368p ps=3.32u w=1.22u l=1u
X305 VSS.t268 BIT_SEL[42].t2 a_14320_22414.t1 VSS.t3 nfet_06v0 ad=13.42p pd=61.88u as=13.42p ps=61.88u w=30.5u l=0.6u
X306 a_638_19518.t9 a_7830_17643.t0 efuse
X307 VSS.t438 BIT_SEL[60].t2 a_20810_54451.t1 VSS.t14 nfet_06v0 ad=13.42p pd=61.88u as=13.42p ps=61.88u w=30.5u l=0.6u
X308 VSS.t567 BIT_SEL[20].t3 a_7830_21149.t0 VSS.t23 nfet_06v0 ad=13.42p pd=61.88u as=13.42p ps=61.88u w=30.5u l=0.6u
X309 a_14320_9029.t0 BIT_SEL[43].t2 VSS.t30 VSS.t3 nfet_06v0 ad=13.42p pd=61.88u as=13.42p ps=61.88u w=30.5u l=0.6u
X310 a_638_3764.t29 COL_PROG_N[0].t2 VDD.t179 VDD.t4 pfet_06v0 ad=16.83p pd=77.38u as=9.945p ps=38.77u w=38.25u l=0.5u
X311 a_638_3764.t9 a_1340_1889.t0 efuse
X312 a_1340_29026.t1 a_638_27395.t58 efuse
X313 a_110_4690.t0 a_154_4602.t1 VSS.t391 VSS.t0 nfet_06v0 ad=0.3608p pd=2.52u as=0.3608p ps=2.52u w=0.82u l=1u
X314 a_14320_10663.t1 BIT_SEL[35].t1 VSS.t489 VSS.t3 nfet_06v0 ad=13.42p pd=61.88u as=13.42p ps=61.88u w=30.5u l=0.6u
X315 a_110_13687.t0 a_154_13599.t1 VSS.t87 VSS.t0 nfet_06v0 ad=0.3608p pd=2.52u as=0.3608p ps=2.52u w=0.82u l=1u
X316 VDD a_110_62741.t1 a_154_62653.t0 VDD pfet_06v0 ad=0.5368p pd=3.32u as=0.5368p ps=3.32u w=1.22u l=1u
X317 a_20810_40009.t0 BIT_SEL[61].t0 VSS.t88 VSS.t14 nfet_06v0 ad=13.42p pd=61.88u as=13.42p ps=61.88u w=30.5u l=0.6u
X318 VDD a_110_7602.t1 a_154_7514.t0 VDD pfet_06v0 ad=0.5368p pd=3.32u as=0.5368p ps=3.32u w=1.22u l=1u
X319 a_20810_62328.t1 a_638_58903.t38 efuse
X320 VSS.t420 BIT_SEL[62].t1 a_20810_54819.t0 VSS.t14 nfet_06v0 ad=13.42p pd=61.88u as=13.42p ps=61.88u w=30.5u l=0.6u
X321 a_638_35272.t3 a_7830_33397.t0 efuse
X322 a_7830_58293.t0 BIT_SEL[17].t3 VSS.t380 VSS.t23 nfet_06v0 ad=13.42p pd=61.88u as=13.42p ps=61.88u w=30.5u l=0.6u
X323 a_7830_6660.t0 a_638_3764.t54 efuse
X324 a_14320_11031.t0 BIT_SEL[33].t1 VSS.t348 VSS.t3 nfet_06v0 ad=13.42p pd=61.88u as=13.42p ps=61.88u w=30.5u l=0.6u
X325 a_1340_44780.t0 a_638_43149.t12 efuse
X326 a_638_51026.t16 SENSE.t4 a_110_50464.t5 VSS.t0 nfet_06v0 ad=0.3608p pd=2.52u as=0.3608p ps=2.52u w=0.82u l=0.6u
X327 VSS.t301 BIT_SEL[54].t3 a_20810_21678.t1 VSS.t14 nfet_06v0 ad=13.42p pd=61.88u as=13.42p ps=61.88u w=30.5u l=0.6u
X328 VSS.t204 BIT_SEL[42].t3 a_14320_53922.t0 VSS.t3 nfet_06v0 ad=13.42p pd=61.88u as=13.42p ps=61.88u w=30.5u l=0.6u
X329 a_14320_53554.t0 a_638_51026.t39 efuse