* NGSPICE file created from efuse_array_64x8.ext - technology: gf180mcuD

.subckt efuse_array_64x8 VSS VDD SENSE PRESET_N BIT_SEL[0] BIT_SEL[1] BIT_SEL[2] BIT_SEL[3]
+ BIT_SEL[4] BIT_SEL[5] BIT_SEL[6] BIT_SEL[7] BIT_SEL[8] BIT_SEL[9] BIT_SEL[10] BIT_SEL[11]
+ BIT_SEL[12] BIT_SEL[13] BIT_SEL[14] BIT_SEL[15] BIT_SEL[16] BIT_SEL[17] BIT_SEL[18]
+ BIT_SEL[19] BIT_SEL[20] BIT_SEL[21] BIT_SEL[22] BIT_SEL[23] BIT_SEL[24] BIT_SEL[25]
+ BIT_SEL[26] BIT_SEL[27] BIT_SEL[28] BIT_SEL[29] BIT_SEL[30] BIT_SEL[31] BIT_SEL[32]
+ BIT_SEL[33] BIT_SEL[34] BIT_SEL[35] BIT_SEL[36] BIT_SEL[37] BIT_SEL[38] BIT_SEL[39]
+ BIT_SEL[40] BIT_SEL[41] BIT_SEL[42] BIT_SEL[43] BIT_SEL[44] BIT_SEL[45] BIT_SEL[46]
+ BIT_SEL[47] BIT_SEL[48] BIT_SEL[49] BIT_SEL[50] BIT_SEL[51] BIT_SEL[52] BIT_SEL[53]
+ BIT_SEL[54] BIT_SEL[55] BIT_SEL[56] BIT_SEL[57] BIT_SEL[58] BIT_SEL[59] BIT_SEL[60]
+ BIT_SEL[61] BIT_SEL[62] BIT_SEL[63] COL_PROG_N[0] OUT[0] COL_PROG_N[1] OUT[1] COL_PROG_N[2]
+ OUT[2] COL_PROG_N[3] OUT[3] COL_PROG_N[4] OUT[4] COL_PROG_N[5] OUT[5] COL_PROG_N[6]
+ OUT[6] COL_PROG_N[7] OUT[7]
X0 a_1340_61431.t1 a_638_58903.t29 efuse
X1 a_7830_61063.t1 a_638_58903.t0 efuse
X2 VSS.t28 BIT_SEL[50].t0 a_20810_20781.t0 VSS.t20 nfet_06v0 ad=13.42p pd=61.88u as=13.42p ps=61.88u w=30.5u l=0.6u
X3 a_20810_3154.t0 BIT_SEL[49].t0 VSS.t426 VSS.t20 nfet_06v0 ad=13.42p pd=61.88u as=13.42p ps=61.88u w=30.5u l=0.6u
X4 a_638_27395.t36 a_1340_25152.t1 efuse
X5 VDD a_110_52624.t1 a_154_52536.t0 VDD pfet_06v0 ad=0.5368p pd=3.32u as=0.5368p ps=3.32u w=1.22u l=1u
X6 a_638_35272.t13 a_1340_32660.t0 efuse
X7 a_14320_41274.t0 BIT_SEL[39].t0 VSS.t409 VSS.t41 nfet_06v0 ad=13.42p pd=61.88u as=13.42p ps=61.88u w=30.5u l=0.6u
X8 a_638_43149.t5 a_1340_40906.t0 efuse
X9 a_7738_27712.t1 a_638_27395.t52 efuse
X10 a_1340_9029.t1 BIT_SEL[11].t0 VSS.t415 VSS.t5 nfet_06v0 ad=13.42p pd=61.88u as=13.42p ps=61.88u w=30.5u l=0.6u
X11 a_638_11641.t66 a_20810_9398.t1 efuse
X12 a_110_29441.t0 a_154_29353.t1 VSS.t312 VSS.t31 nfet_06v0 ad=0.3608p pd=2.52u as=0.3608p ps=2.52u w=0.82u l=1u
X13 a_7830_25152.t0 BIT_SEL[25].t0 VSS.t278 VSS.t0 nfet_06v0 ad=13.42p pd=61.88u as=13.42p ps=61.88u w=30.5u l=0.6u
X14 VDD a_110_6258.t1 a_154_6170.t0 VDD pfet_06v0 ad=0.5368p pd=3.32u as=0.5368p ps=3.32u w=1.22u l=1u
X15 VDD a_110_61397.t1 a_154_61309.t0 VDD pfet_06v0 ad=0.5368p pd=3.32u as=0.5368p ps=3.32u w=1.22u l=1u
X16 VDD a_110_49568.t2 OUT[6].t0 VDD pfet_06v0 ad=0.5368p pd=3.32u as=0.5368p ps=3.32u w=1.22u l=0.5u
X17 a_7738_43466.t1 a_638_43149.t59 efuse
X18 VSS.t505 BIT_SEL[52].t0 a_20810_36903.t1 VSS.t20 nfet_06v0 ad=13.42p pd=61.88u as=13.42p ps=61.88u w=30.5u l=0.6u
X19 a_638_11641.t29 a_1340_11031.t1 efuse
X20 a_110_16188.t0 a_154_16100.t1 VSS.t424 VSS.t31 nfet_06v0 ad=0.3608p pd=2.52u as=0.3608p ps=2.52u w=0.82u l=1u
X21 VSS.t27 BIT_SEL[50].t1 a_20810_52289.t0 VSS.t20 nfet_06v0 ad=13.42p pd=61.88u as=13.42p ps=61.88u w=30.5u l=0.6u
X22 VSS.t573 BIT_SEL[38].t0 a_14320_13801.t0 VSS.t41 nfet_06v0 ad=13.42p pd=61.88u as=13.42p ps=61.88u w=30.5u l=0.6u
X23 a_638_27395.t1 a_20810_25152.t0 efuse
X24 a_7830_25520.t0 BIT_SEL[23].t0 VSS.t439 VSS.t0 nfet_06v0 ad=13.42p pd=61.88u as=13.42p ps=61.88u w=30.5u l=0.6u
X25 a_20810_7557.t1 a_638_3764.t57 efuse
X26 VDD a_110_434.t1 a_154_346.t0 VDD pfet_06v0 ad=0.5368p pd=3.32u as=0.5368p ps=3.32u w=1.22u l=1u
X27 a_14320_62328.t1 a_638_58903.t61 efuse
X28 VSS.t357 BIT_SEL[54].t0 a_20810_37432.t0 VSS.t20 nfet_06v0 ad=13.42p pd=61.88u as=13.42p ps=61.88u w=30.5u l=0.6u
X29 VSS.t458 a_110_34710.t6 a_110_33814.t1 VSS.t31 nfet_06v0 ad=0.3608p pd=2.52u as=0.3608p ps=2.52u w=0.82u l=0.6u
X30 VSS.t352 BIT_SEL[52].t1 a_20810_52657.t1 VSS.t20 nfet_06v0 ad=13.42p pd=61.88u as=13.42p ps=61.88u w=30.5u l=0.6u
X31 a_1248_59220.t1 a_638_58903.t18 efuse
X32 a_638_27395.t9 a_1340_26785.t1 efuse
X33 a_1340_7557.t0 a_638_3764.t28 efuse
X34 a_638_43149.t17 a_20810_40906.t0 efuse
X35 a_20810_40906.t1 BIT_SEL[57].t0 VSS.t372 VSS.t20 nfet_06v0 ad=13.42p pd=61.88u as=13.42p ps=61.88u w=30.5u l=0.6u
X36 VSS.t381 BIT_SEL[60].t0 a_20810_7189.t1 VSS.t20 nfet_06v0 ad=13.42p pd=61.88u as=13.42p ps=61.88u w=30.5u l=0.6u
X37 a_638_58903.t32 a_20810_55763.t1 efuse
X38 VSS.t320 BIT_SEL[58].t0 a_20810_38168.t0 VSS.t20 nfet_06v0 ad=13.42p pd=61.88u as=13.42p ps=61.88u w=30.5u l=0.6u
X39 a_110_24961.t0 a_154_24873.t1 VSS.t485 VSS.t31 nfet_06v0 ad=0.3608p pd=2.52u as=0.3608p ps=2.52u w=0.82u l=1u
X40 VDD a_110_21116.t1 a_154_21028.t0 VDD pfet_06v0 ad=0.5368p pd=3.32u as=0.5368p ps=3.32u w=1.22u l=1u
X41 a_1340_1889.t0 BIT_SEL[7].t0 VSS.t517 VSS.t5 nfet_06v0 ad=13.42p pd=61.88u as=13.42p ps=61.88u w=30.5u l=0.6u
X42 a_20810_26417.t0 BIT_SEL[51].t0 VSS.t579 VSS.t20 nfet_06v0 ad=13.42p pd=61.88u as=13.42p ps=61.88u w=30.5u l=0.6u
X43 VSS.t394 a_110_2306.t2 OUT[0].t1 VSS.t31 nfet_06v0 ad=0.3608p pd=2.52u as=0.3608p ps=2.52u w=0.82u l=0.6u
X44 VSS.t612 BIT_SEL[38].t1 a_14320_45309.t0 VSS.t41 nfet_06v0 ad=13.42p pd=61.88u as=13.42p ps=61.88u w=30.5u l=0.6u
X45 a_638_43149.t4 a_1340_42539.t0 efuse
X46 VSS.t174 BIT_SEL[62].t0 a_20810_7557.t0 VSS.t20 nfet_06v0 ad=13.42p pd=61.88u as=13.42p ps=61.88u w=30.5u l=0.6u
X47 VDD a_110_10183.t2 a_110_11079.t3 VDD pfet_06v0 ad=0.5368p pd=3.32u as=0.5368p ps=3.32u w=1.22u l=0.5u
X48 a_1340_57028.t1 BIT_SEL[7].t1 VSS.t518 VSS.t5 nfet_06v0 ad=13.42p pd=61.88u as=13.42p ps=61.88u w=30.5u l=0.6u
X49 a_638_11641.t2 a_14320_9398.t0 efuse
X50 a_110_40715.t0 a_154_40627.t1 VSS.t464 VSS.t31 nfet_06v0 ad=0.3608p pd=2.52u as=0.3608p ps=2.52u w=0.82u l=1u
X51 VSS.t491 BIT_SEL[14].t0 a_1340_23311.t0 VSS.t5 nfet_06v0 ad=13.42p pd=61.88u as=13.42p ps=61.88u w=30.5u l=0.6u
X52 a_110_5810.t0 a_154_5722.t1 VSS.t69 VSS.t31 nfet_06v0 ad=0.3608p pd=2.52u as=0.3608p ps=2.52u w=0.82u l=1u
X53 a_7830_52657.t1 a_638_51026.t15 efuse
X54 a_20810_26785.t1 BIT_SEL[49].t1 VSS.t152 VSS.t20 nfet_06v0 ad=13.42p pd=61.88u as=13.42p ps=61.88u w=30.5u l=0.6u
X55 a_638_3764.t56 a_14320_1521.t1 efuse
X56 a_638_58903.t13 a_1340_55395.t0 efuse
X57 VSS.t49 BIT_SEL[40].t0 a_14320_45677.t0 VSS.t41 nfet_06v0 ad=13.42p pd=61.88u as=13.42p ps=61.88u w=30.5u l=0.6u
X58 VSS.t80 BIT_SEL[48].t0 a_20718_19835.t1 VSS.t20 nfet_06v0 ad=13.42p pd=61.88u as=13.42p ps=61.88u w=30.5u l=0.6u
X59 a_638_3764.t7 COL_PROG_N[0].t0 VDD.t77 VDD.t76 pfet_06v0 ad=9.945p pd=38.77u as=9.945p ps=38.77u w=38.25u l=0.5u
X60 a_110_62741.t0 a_154_62653.t1 VSS.t332 VSS.t31 nfet_06v0 ad=0.3608p pd=2.52u as=0.3608p ps=2.52u w=0.82u l=1u
X61 a_1340_23887.t0 BIT_SEL[15].t0 VSS.t242 VSS.t5 nfet_06v0 ad=13.42p pd=61.88u as=13.42p ps=61.88u w=30.5u l=0.6u
X62 a_20810_42539.t1 BIT_SEL[49].t2 VSS.t404 VSS.t20 nfet_06v0 ad=13.42p pd=61.88u as=13.42p ps=61.88u w=30.5u l=0.6u
X63 a_638_27395.t66 a_14320_25152.t1 efuse
X64 a_7830_14169.t0 a_638_11641.t5 efuse
X65 VSS.t50 BIT_SEL[40].t1 a_14320_61431.t1 VSS.t41 nfet_06v0 ad=13.42p pd=61.88u as=13.42p ps=61.88u w=30.5u l=0.6u
X66 VSS.t213 BIT_SEL[22].t0 a_7830_29555.t1 VSS.t0 nfet_06v0 ad=13.42p pd=61.88u as=13.42p ps=61.88u w=30.5u l=0.6u
X67 VSS.t59 BIT_SEL[20].t0 a_7830_44780.t0 VSS.t0 nfet_06v0 ad=13.42p pd=61.88u as=13.42p ps=61.88u w=30.5u l=0.6u
X68 VSS.t353 BIT_SEL[52].t2 a_20810_21149.t0 VSS.t20 nfet_06v0 ad=13.42p pd=61.88u as=13.42p ps=61.88u w=30.5u l=0.6u
X69 a_638_58903.t4 a_20810_57556.t0 efuse
X70 a_14228_4081.t0 a_638_3764.t0 efuse
X71 a_638_58903.t36 a_20810_58293.t1 efuse
X72 a_638_43149.t29 a_14320_40906.t1 efuse
X73 VDD a_110_37318.t1 a_154_37230.t0 VDD pfet_06v0 ad=0.5368p pd=3.32u as=0.5368p ps=3.32u w=1.22u l=1u
X74 VSS.t116 BIT_SEL[34].t0 a_14320_12904.t1 VSS.t41 nfet_06v0 ad=13.42p pd=61.88u as=13.42p ps=61.88u w=30.5u l=0.6u
X75 a_20810_58293.t0 BIT_SEL[49].t3 VSS.t277 VSS.t20 nfet_06v0 ad=13.42p pd=61.88u as=13.42p ps=61.88u w=30.5u l=0.6u
X76 a_7830_29923.t0 a_638_27395.t2 efuse
X77 a_110_36198.t0 a_154_36110.t1 VSS.t523 VSS.t31 nfet_06v0 ad=0.3608p pd=2.52u as=0.3608p ps=2.52u w=0.82u l=1u
X78 VDD a_110_26833.t6 a_110_25937.t0 VDD pfet_06v0 ad=0.5368p pd=3.32u as=0.5368p ps=3.32u w=1.22u l=0.5u
X79 a_1340_55395.t1 BIT_SEL[15].t1 VSS.t243 VSS.t5 nfet_06v0 ad=13.42p pd=61.88u as=13.42p ps=61.88u w=30.5u l=0.6u
X80 VDD a_110_32390.t1 a_154_32302.t0 VDD pfet_06v0 ad=0.5368p pd=3.32u as=0.5368p ps=3.32u w=1.22u l=1u
X81 a_638_19518.t10 a_7830_16010.t0 efuse
X82 a_7830_45677.t0 a_638_43149.t18 efuse
X83 a_7830_18908.t0 BIT_SEL[17].t0 VSS.t260 VSS.t0 nfet_06v0 ad=13.42p pd=61.88u as=13.42p ps=61.88u w=30.5u l=0.6u
X84 VSS.t335 BIT_SEL[56].t0 a_20810_6292.t1 VSS.t20 nfet_06v0 ad=13.42p pd=61.88u as=13.42p ps=61.88u w=30.5u l=0.6u
X85 a_110_8759.t0 a_154_8671.t1 VSS.t265 VSS.t31 nfet_06v0 ad=0.3608p pd=2.52u as=0.3608p ps=2.52u w=0.82u l=1u
X86 a_638_58903.t1 a_1340_57028.t0 efuse
X87 VSS.t51 BIT_SEL[40].t2 a_14320_14169.t0 VSS.t41 nfet_06v0 ad=13.42p pd=61.88u as=13.42p ps=61.88u w=30.5u l=0.6u
X88 a_1340_55763.t0 BIT_SEL[13].t0 VSS.t345 VSS.t5 nfet_06v0 ad=13.42p pd=61.88u as=13.42p ps=61.88u w=30.5u l=0.6u
X89 VSS.t266 BIT_SEL[16].t0 a_7738_11958.t1 VSS.t0 nfet_06v0 ad=13.42p pd=61.88u as=13.42p ps=61.88u w=30.5u l=0.6u
X90 a_638_35272.t7 a_7830_31764.t0 efuse
X91 a_110_31233.t0 a_154_31145.t1 VSS.t32 VSS.t31 nfet_06v0 ad=0.3608p pd=2.52u as=0.3608p ps=2.52u w=0.82u l=1u
X92 a_14320_20781.t0 a_638_19518.t21 efuse
X93 a_1340_33925.t0 BIT_SEL[5].t0 VSS.t70 VSS.t5 nfet_06v0 ad=13.42p pd=61.88u as=13.42p ps=61.88u w=30.5u l=0.6u
X94 VDD a_110_32838.t1 a_154_32750.t0 VDD pfet_06v0 ad=0.5368p pd=3.32u as=0.5368p ps=3.32u w=1.22u l=1u
X95 VSS.t532 BIT_SEL[42].t0 a_14320_14537.t0 VSS.t41 nfet_06v0 ad=13.42p pd=61.88u as=13.42p ps=61.88u w=30.5u l=0.6u
X96 VDD a_110_58341.t6 a_110_57445.t0 VDD pfet_06v0 ad=0.5368p pd=3.32u as=0.5368p ps=3.32u w=1.22u l=0.5u
X97 a_1340_1521.t0 BIT_SEL[9].t0 VSS.t85 VSS.t5 nfet_06v0 ad=13.42p pd=61.88u as=13.42p ps=61.88u w=30.5u l=0.6u
X98 a_14320_36535.t0 a_638_35272.t8 efuse
X99 a_20810_41274.t0 BIT_SEL[55].t0 VSS.t593 VSS.t20 nfet_06v0 ad=13.42p pd=61.88u as=13.42p ps=61.88u w=30.5u l=0.6u
X100 VSS.t486 BIT_SEL[32].t0 a_14228_4081.t1 VSS.t41 nfet_06v0 ad=13.42p pd=61.88u as=13.42p ps=61.88u w=30.5u l=0.6u
X101 a_1340_13272.t1 a_638_11641.t23 efuse
X102 VSS.t117 BIT_SEL[34].t1 a_14320_60166.t1 VSS.t41 nfet_06v0 ad=13.42p pd=61.88u as=13.42p ps=61.88u w=30.5u l=0.6u
X103 VDD a_110_54864.t1 a_154_54776.t0 VDD pfet_06v0 ad=0.5368p pd=3.32u as=0.5368p ps=3.32u w=1.22u l=1u
X104 a_638_58903.t31 a_14320_58293.t0 efuse
X105 VDD PRESET_N.t0 a_110_34710.t1 VDD pfet_06v0 ad=0.3172p pd=1.74u as=0.4575p ps=1.97u w=1.22u l=0.5u
X106 VSS.t229 BIT_SEL[12].t0 a_1340_22943.t0 VSS.t5 nfet_06v0 ad=13.42p pd=61.88u as=13.42p ps=61.88u w=30.5u l=0.6u
X107 VDD a_110_48592.t1 a_154_48504.t0 VDD pfet_06v0 ad=0.5368p pd=3.32u as=0.5368p ps=3.32u w=1.22u l=1u
X108 a_20810_8133.t0 BIT_SEL[63].t0 VSS.t225 VSS.t20 nfet_06v0 ad=13.42p pd=61.88u as=13.42p ps=61.88u w=30.5u l=0.6u
X109 a_638_19518.t5 a_7830_17643.t0 efuse
X110 VSS.t476 BIT_SEL[36].t0 a_14320_60534.t0 VSS.t41 nfet_06v0 ad=13.42p pd=61.88u as=13.42p ps=61.88u w=30.5u l=0.6u
X111 VSS.t267 BIT_SEL[16].t1 a_7738_43466.t0 VSS.t0 nfet_06v0 ad=13.42p pd=61.88u as=13.42p ps=61.88u w=30.5u l=0.6u
X112 VSS.t358 BIT_SEL[54].t1 a_20810_13801.t0 VSS.t20 nfet_06v0 ad=13.42p pd=61.88u as=13.42p ps=61.88u w=30.5u l=0.6u
X113 a_638_3764.t9 a_1340_1889.t1 efuse
X114 VSS.t533 BIT_SEL[42].t1 a_14320_46045.t0 VSS.t41 nfet_06v0 ad=13.42p pd=61.88u as=13.42p ps=61.88u w=30.5u l=0.6u
X115 a_1340_29026.t0 a_638_27395.t4 efuse
X116 VDD a_110_9207.t1 a_154_9119.t0 VDD pfet_06v0 ad=0.5368p pd=3.32u as=0.5368p ps=3.32u w=1.22u l=1u
X117 VSS.t479 BIT_SEL[18].t0 a_7830_44412.t0 VSS.t0 nfet_06v0 ad=13.42p pd=61.88u as=13.42p ps=61.88u w=30.5u l=0.6u
X118 a_20810_62328.t1 a_638_58903.t14 efuse
X119 a_638_35272.t17 a_7830_33397.t0 efuse
X120 a_1340_24255.t0 BIT_SEL[13].t1 VSS.t346 VSS.t5 nfet_06v0 ad=13.42p pd=61.88u as=13.42p ps=61.88u w=30.5u l=0.6u
X121 VSS.t6 BIT_SEL[0].t0 a_1248_59220.t0 VSS.t5 nfet_06v0 ad=13.42p pd=61.88u as=13.42p ps=61.88u w=30.5u l=0.6u
X122 a_14320_34294.t1 BIT_SEL[35].t0 VSS.t451 VSS.t41 nfet_06v0 ad=13.42p pd=61.88u as=13.42p ps=61.88u w=30.5u l=0.6u
X123 a_7830_6660.t0 a_638_3764.t11 efuse
X124 a_638_58903.t30 SENSE.t0 a_110_58341.t3 VSS.t31 nfet_06v0 ad=0.3608p pd=2.52u as=0.3608p ps=2.52u w=0.82u l=0.6u
X125 a_1340_44780.t0 a_638_43149.t10 efuse
X126 VSS.t240 a_110_33814.t2 OUT[4].t1 VSS.t31 nfet_06v0 ad=0.3608p pd=2.52u as=0.3608p ps=2.52u w=0.82u l=0.6u
X127 a_110_1330.t0 a_154_1242.t1 VSS.t319 VSS.t31 nfet_06v0 ad=0.3608p pd=2.52u as=0.3608p ps=2.52u w=0.82u l=1u
X128 a_14320_34662.t1 BIT_SEL[33].t0 VSS.t585 VSS.t41 nfet_06v0 ad=13.42p pd=61.88u as=13.42p ps=61.88u w=30.5u l=0.6u
X129 a_7830_33397.t1 BIT_SEL[23].t1 VSS.t600 VSS.t0 nfet_06v0 ad=13.42p pd=61.88u as=13.42p ps=61.88u w=30.5u l=0.6u
X130 a_1340_32660.t1 BIT_SEL[11].t1 VSS.t414 VSS.t5 nfet_06v0 ad=13.42p pd=61.88u as=13.42p ps=61.88u w=30.5u l=0.6u
X131 a_14320_53554.t0 a_638_51026.t16 efuse
X132 VDD a_110_23356.t1 a_154_23268.t0 VDD pfet_06v0 ad=0.5368p pd=3.32u as=0.5368p ps=3.32u w=1.22u l=1u
X133 VSS.t477 BIT_SEL[36].t1 a_14320_13272.t0 VSS.t41 nfet_06v0 ad=13.42p pd=61.88u as=13.42p ps=61.88u w=30.5u l=0.6u
X134 VSS.t359 BIT_SEL[54].t2 a_20810_45309.t1 VSS.t20 nfet_06v0 ad=13.42p pd=61.88u as=13.42p ps=61.88u w=30.5u l=0.6u
X135 VSS.t239 a_110_42587.t6 a_110_41691.t1 VSS.t31 nfet_06v0 ad=0.3608p pd=2.52u as=0.3608p ps=2.52u w=0.82u l=0.6u
X136 a_1340_18171.t0 BIT_SEL[5].t1 VSS.t71 VSS.t5 nfet_06v0 ad=13.42p pd=61.88u as=13.42p ps=61.88u w=30.5u l=0.6u
X137 a_7830_18540.t0 BIT_SEL[19].t0 VSS.t407 VSS.t0 nfet_06v0 ad=13.42p pd=61.88u as=13.42p ps=61.88u w=30.5u l=0.6u
X138 a_638_19518.t7 a_14320_16378.t0 efuse
X139 VDD a_110_17084.t1 a_154_16996.t0 VDD pfet_06v0 ad=0.5368p pd=3.32u as=0.5368p ps=3.32u w=1.22u l=1u
X140 VSS.t336 BIT_SEL[56].t1 a_20810_45677.t1 VSS.t20 nfet_06v0 ad=13.42p pd=61.88u as=13.42p ps=61.88u w=30.5u l=0.6u
X141 a_7830_41802.t0 BIT_SEL[21].t0 VSS.t440 VSS.t0 nfet_06v0 ad=13.42p pd=61.88u as=13.42p ps=61.88u w=30.5u l=0.6u
X142 a_20810_61431.t0 a_638_58903.t62 efuse
X143 a_638_35272.t66 a_14320_32132.t1 efuse
X144 VSS.t14 BIT_SEL[10].t0 a_1340_6660.t0 VSS.t5 nfet_06v0 ad=13.42p pd=61.88u as=13.42p ps=61.88u w=30.5u l=0.6u
X145 a_20810_60534.t0 a_638_58903.t3 efuse
X146 a_110_61845.t0 a_154_61757.t1 VSS.t204 VSS.t31 nfet_06v0 ad=0.3608p pd=2.52u as=0.3608p ps=2.52u w=0.82u l=1u
X147 VSS.t337 BIT_SEL[56].t2 a_20810_61431.t1 VSS.t20 nfet_06v0 ad=13.42p pd=61.88u as=13.42p ps=61.88u w=30.5u l=0.6u
X148 a_638_11641.t0 a_1340_9029.t0 efuse
X149 a_638_51026.t67 a_7830_47886.t1 efuse
X150 VSS.t7 BIT_SEL[0].t1 a_1248_27712.t1 VSS.t5 nfet_06v0 ad=13.42p pd=61.88u as=13.42p ps=61.88u w=30.5u l=0.6u
X151 a_638_27395.t23 SENSE.t1 a_110_26833.t4 VSS.t31 nfet_06v0 ad=0.3608p pd=2.52u as=0.3608p ps=2.52u w=0.82u l=0.6u
X152 a_110_55573.t0 a_154_55485.t1 VSS.t510 VSS.t31 nfet_06v0 ad=0.3608p pd=2.52u as=0.3608p ps=2.52u w=0.82u l=1u
X153 a_638_51026.t6 a_7830_48783.t0 efuse
X154 a_1340_50048.t1 BIT_SEL[3].t0 VSS.t183 VSS.t5 nfet_06v0 ad=13.42p pd=61.88u as=13.42p ps=61.88u w=30.5u l=0.6u
X155 a_638_35272.t2 COL_PROG_N[4].t0 VDD.t3 VDD.t2 pfet_06v0 ad=16.83p pd=77.38u as=9.945p ps=38.77u w=38.25u l=0.5u
X156 VSS.t26 BIT_SEL[50].t2 a_20810_12904.t0 VSS.t20 nfet_06v0 ad=13.42p pd=61.88u as=13.42p ps=61.88u w=30.5u l=0.6u
X157 VSS.t191 BIT_SEL[2].t0 a_1340_28658.t0 VSS.t5 nfet_06v0 ad=13.42p pd=61.88u as=13.42p ps=61.88u w=30.5u l=0.6u
X158 a_7830_23311.t1 a_638_19518.t17 efuse
X159 a_1340_61799.t1 a_638_58903.t24 efuse
X160 a_14228_51343.t1 a_638_51026.t33 efuse
X161 a_638_43149.t30 SENSE.t2 a_110_42587.t5 VSS.t31 nfet_06v0 ad=0.3608p pd=2.52u as=0.3608p ps=2.52u w=0.82u l=0.6u
X162 VSS.t110 BIT_SEL[44].t0 a_14320_38697.t0 VSS.t41 nfet_06v0 ad=13.42p pd=61.88u as=13.42p ps=61.88u w=30.5u l=0.6u
X163 VSS.t114 BIT_SEL[34].t2 a_14320_5027.t1 VSS.t41 nfet_06v0 ad=13.42p pd=61.88u as=13.42p ps=61.88u w=30.5u l=0.6u
X164 a_638_35272.t58 COL_PROG_N[4].t1 VDD.t208 VDD.t76 pfet_06v0 ad=9.945p pd=38.77u as=9.945p ps=38.77u w=38.25u l=0.5u
X165 a_638_27395.t55 a_1340_24783.t1 efuse
X166 VDD a_110_25937.t2 OUT[3].t0 VDD pfet_06v0 ad=0.5368p pd=3.32u as=0.5368p ps=3.32u w=1.22u l=0.5u
X167 a_20810_5924.t0 a_638_3764.t1 efuse
X168 VSS.t58 a_110_11079.t6 a_110_10183.t1 VSS.t31 nfet_06v0 ad=0.3608p pd=2.52u as=0.3608p ps=2.52u w=0.82u l=0.6u
X169 a_638_19518.t4 a_14320_18171.t0 efuse
X170 VSS.t172 a_110_18060.t2 OUT[2].t1 VSS.t31 nfet_06v0 ad=0.3608p pd=2.52u as=0.3608p ps=2.52u w=0.82u l=0.6u
X171 a_7830_39065.t0 a_638_35272.t0 efuse
X172 VSS.t111 BIT_SEL[44].t1 a_14320_54451.t0 VSS.t41 nfet_06v0 ad=13.42p pd=61.88u as=13.42p ps=61.88u w=30.5u l=0.6u
X173 VSS.t208 BIT_SEL[24].t0 a_7830_37800.t1 VSS.t0 nfet_06v0 ad=13.42p pd=61.88u as=13.42p ps=61.88u w=30.5u l=0.6u
X174 a_110_14583.t0 a_154_14495.t1 VSS.t171 VSS.t31 nfet_06v0 ad=0.3608p pd=2.52u as=0.3608p ps=2.52u w=0.82u l=1u
X175 a_638_43149.t50 a_1340_40537.t1 efuse
X176 a_1340_5924.t0 a_638_3764.t19 efuse
X177 a_7830_10294.t0 BIT_SEL[21].t1 VSS.t441 VSS.t0 nfet_06v0 ad=13.42p pd=61.88u as=13.42p ps=61.88u w=30.5u l=0.6u
X178 VSS.t338 BIT_SEL[56].t3 a_20810_14169.t1 VSS.t20 nfet_06v0 ad=13.42p pd=61.88u as=13.42p ps=61.88u w=30.5u l=0.6u
X179 VDD a_110_60501.t1 a_154_60413.t0 VDD pfet_06v0 ad=0.5368p pd=3.32u as=0.5368p ps=3.32u w=1.22u l=1u
X180 a_14320_40009.t0 BIT_SEL[45].t0 VSS.t604 VSS.t41 nfet_06v0 ad=13.42p pd=61.88u as=13.42p ps=61.88u w=30.5u l=0.6u
X181 a_638_35272.t42 a_14320_33925.t0 efuse
X182 VSS.t498 BIT_SEL[46].t0 a_14320_54819.t1 VSS.t41 nfet_06v0 ad=13.42p pd=61.88u as=13.42p ps=61.88u w=30.5u l=0.6u
X183 a_110_30337.t0 a_154_30249.t1 VSS.t203 VSS.t31 nfet_06v0 ad=0.3608p pd=2.52u as=0.3608p ps=2.52u w=0.82u l=1u
X184 VDD a_110_28321.t1 a_154_28233.t0 VDD pfet_06v0 ad=0.5368p pd=3.32u as=0.5368p ps=3.32u w=1.22u l=1u
X185 VDD.t111 COL_PROG_N[0].t1 a_638_3764.t29 VDD.t86 pfet_06v0 ad=9.945p pd=38.77u as=9.945p ps=38.77u w=38.25u l=0.5u
X186 VSS.t321 BIT_SEL[58].t1 a_20810_14537.t0 VSS.t20 nfet_06v0 ad=13.42p pd=61.88u as=13.42p ps=61.88u w=30.5u l=0.6u
X187 VSS.t490 BIT_SEL[14].t1 a_1340_62696.t0 VSS.t5 nfet_06v0 ad=13.42p pd=61.88u as=13.42p ps=61.88u w=30.5u l=0.6u
X188 a_14320_60534.t1 a_638_58903.t68 efuse
X189 a_1340_33029.t0 BIT_SEL[9].t1 VSS.t86 VSS.t5 nfet_06v0 ad=13.42p pd=61.88u as=13.42p ps=61.88u w=30.5u l=0.6u
X190 a_638_3764.t10 a_1340_624.t0 efuse
X191 VSS.t173 a_110_18060.t3 a_110_18956.t4 VSS.t31 nfet_06v0 ad=0.3608p pd=2.52u as=0.3608p ps=2.52u w=0.82u l=0.6u
X192 a_7830_60166.t0 a_638_58903.t45 efuse
X193 VSS.t495 BIT_SEL[4].t0 a_1340_5395.t0 VSS.t5 nfet_06v0 ad=13.42p pd=61.88u as=13.42p ps=61.88u w=30.5u l=0.6u
X194 a_638_51026.t3 a_1340_50048.t0 efuse
X195 a_110_24065.t0 a_154_23977.t1 VSS.t530 VSS.t31 nfet_06v0 ad=0.3608p pd=2.52u as=0.3608p ps=2.52u w=0.82u l=1u
X196 a_638_3764.t33 SENSE.t3 a_110_3202.t5 VSS.t31 nfet_06v0 ad=0.3608p pd=2.52u as=0.3608p ps=2.52u w=0.82u l=0.6u
X197 a_14320_2417.t0 BIT_SEL[37].t0 VSS.t552 VSS.t41 nfet_06v0 ad=13.42p pd=61.88u as=13.42p ps=61.88u w=30.5u l=0.6u
X198 VDD a_110_57445.t2 OUT[7].t0 VDD pfet_06v0 ad=0.5368p pd=3.32u as=0.5368p ps=3.32u w=1.22u l=0.5u
X199 VSS.t613 BIT_SEL[38].t2 a_14320_21678.t0 VSS.t41 nfet_06v0 ad=13.42p pd=61.88u as=13.42p ps=61.88u w=30.5u l=0.6u
X200 a_7830_22414.t0 a_638_19518.t0 efuse
X201 VSS.t25 BIT_SEL[50].t3 a_20810_60166.t0 VSS.t20 nfet_06v0 ad=13.42p pd=61.88u as=13.42p ps=61.88u w=30.5u l=0.6u
X202 a_1340_22046.t0 a_638_19518.t15 efuse
X203 a_7830_21678.t0 a_638_19518.t1 efuse
X204 VDD a_110_53968.t1 a_154_53880.t0 VDD pfet_06v0 ad=0.5368p pd=3.32u as=0.5368p ps=3.32u w=1.22u l=1u
X205 VSS.t347 BIT_SEL[6].t0 a_1340_5924.t1 VSS.t5 nfet_06v0 ad=13.42p pd=61.88u as=13.42p ps=61.88u w=30.5u l=0.6u
X206 a_110_46091.t0 a_154_46003.t1 VSS.t514 VSS.t31 nfet_06v0 ad=0.3608p pd=2.52u as=0.3608p ps=2.52u w=0.82u l=1u
X207 a_7830_5027.t0 a_638_3764.t35 efuse
X208 VSS.t354 BIT_SEL[52].t3 a_20810_60534.t1 VSS.t20 nfet_06v0 ad=13.42p pd=61.88u as=13.42p ps=61.88u w=30.5u l=0.6u
X209 a_638_58903.t58 a_20810_55395.t1 efuse
X210 a_1340_48783.t0 BIT_SEL[9].t2 VSS.t87 VSS.t5 nfet_06v0 ad=13.42p pd=61.88u as=13.42p ps=61.88u w=30.5u l=0.6u
X211 a_7830_38168.t0 a_638_35272.t1 efuse
X212 a_110_18956.t2 PRESET_N.t1 VDD VDD pfet_06v0 ad=0.4575p pd=1.97u as=0.5368p ps=3.32u w=1.22u l=0.5u
X213 a_638_58903.t5 a_20810_56291.t0 efuse
X214 VDD a_110_47696.t1 a_154_47608.t0 VDD pfet_06v0 ad=0.5368p pd=3.32u as=0.5368p ps=3.32u w=1.22u l=1u
X215 a_7830_37432.t0 a_638_35272.t6 efuse
X216 VSS.t480 BIT_SEL[18].t1 a_7830_20781.t1 VSS.t0 nfet_06v0 ad=13.42p pd=61.88u as=13.42p ps=61.88u w=30.5u l=0.6u
X217 a_1340_37800.t1 a_638_35272.t60 efuse
X218 VSS.t322 BIT_SEL[58].t2 a_20810_46045.t0 VSS.t20 nfet_06v0 ad=13.42p pd=61.88u as=13.42p ps=61.88u w=30.5u l=0.6u
X219 a_7830_9398.t1 BIT_SEL[25].t1 VSS.t279 VSS.t0 nfet_06v0 ad=13.42p pd=61.88u as=13.42p ps=61.88u w=30.5u l=0.6u
X220 a_14320_49679.t0 BIT_SEL[37].t1 VSS.t553 VSS.t41 nfet_06v0 ad=13.42p pd=61.88u as=13.42p ps=61.88u w=30.5u l=0.6u
X221 a_638_51026.t54 a_20810_50048.t1 efuse
X222 VDD PRESET_N.t2 a_110_42587.t2 VDD pfet_06v0 ad=0.3172p pd=1.74u as=0.4575p ps=1.97u w=1.22u l=0.5u
X223 a_20810_34294.t0 BIT_SEL[51].t1 VSS.t580 VSS.t20 nfet_06v0 ad=13.42p pd=61.88u as=13.42p ps=61.88u w=30.5u l=0.6u
X224 a_110_46539.t0 a_154_46451.t1 VSS.t598 VSS.t31 nfet_06v0 ad=0.3608p pd=2.52u as=0.3608p ps=2.52u w=0.82u l=1u
X225 VSS.t610 BIT_SEL[38].t3 a_14320_53186.t1 VSS.t41 nfet_06v0 ad=13.42p pd=61.88u as=13.42p ps=61.88u w=30.5u l=0.6u
X226 a_7830_9766.t1 BIT_SEL[23].t2 VSS.t599 VSS.t0 nfet_06v0 ad=13.42p pd=61.88u as=13.42p ps=61.88u w=30.5u l=0.6u
X227 a_638_51026.t2 a_14320_49151.t0 efuse
X228 VSS.t468 BIT_SEL[14].t2 a_1340_31188.t0 VSS.t5 nfet_06v0 ad=13.42p pd=61.88u as=13.42p ps=61.88u w=30.5u l=0.6u
X229 a_1340_16010.t0 BIT_SEL[15].t2 VSS.t244 VSS.t5 nfet_06v0 ad=13.42p pd=61.88u as=13.42p ps=61.88u w=30.5u l=0.6u
X230 a_20810_34662.t1 BIT_SEL[49].t4 VSS.t275 VSS.t20 nfet_06v0 ad=13.42p pd=61.88u as=13.42p ps=61.88u w=30.5u l=0.6u
X231 VSS.t52 BIT_SEL[40].t3 a_14320_53554.t1 VSS.t41 nfet_06v0 ad=13.42p pd=61.88u as=13.42p ps=61.88u w=30.5u l=0.6u
X232 a_14320_22943.t1 a_638_19518.t68 efuse
X233 a_110_12567.t0 a_154_12479.t1 VSS.t567 VSS.t31 nfet_06v0 ad=0.3608p pd=2.52u as=0.3608p ps=2.52u w=0.82u l=1u
X234 VSS.t481 BIT_SEL[18].t2 a_7830_52289.t1 VSS.t0 nfet_06v0 ad=13.42p pd=61.88u as=13.42p ps=61.88u w=30.5u l=0.6u
X235 VSS.t60 BIT_SEL[20].t1 a_7830_36903.t0 VSS.t0 nfet_06v0 ad=13.42p pd=61.88u as=13.42p ps=61.88u w=30.5u l=0.6u
X236 a_1248_19835.t1 a_638_19518.t66 efuse
X237 VSS.t355 BIT_SEL[52].t4 a_20810_13272.t1 VSS.t20 nfet_06v0 ad=13.42p pd=61.88u as=13.42p ps=61.88u w=30.5u l=0.6u
X238 a_14320_16906.t0 BIT_SEL[43].t0 VSS.t574 VSS.t41 nfet_06v0 ad=13.42p pd=61.88u as=13.42p ps=61.88u w=30.5u l=0.6u
X239 a_1340_31764.t0 BIT_SEL[15].t3 VSS.t245 VSS.t5 nfet_06v0 ad=13.42p pd=61.88u as=13.42p ps=61.88u w=30.5u l=0.6u
X240 VSS.t496 BIT_SEL[4].t1 a_1340_29026.t1 VSS.t5 nfet_06v0 ad=13.42p pd=61.88u as=13.42p ps=61.88u w=30.5u l=0.6u
X241 VSS.t499 BIT_SEL[46].t1 a_14320_39065.t1 VSS.t41 nfet_06v0 ad=13.42p pd=61.88u as=13.42p ps=61.88u w=30.5u l=0.6u
X242 VSS.t214 BIT_SEL[22].t1 a_7830_37432.t1 VSS.t0 nfet_06v0 ad=13.42p pd=61.88u as=13.42p ps=61.88u w=30.5u l=0.6u
X243 VDD a_110_29441.t1 a_154_29353.t0 VDD pfet_06v0 ad=0.5368p pd=3.32u as=0.5368p ps=3.32u w=1.22u l=1u
X244 a_638_19518.t49 a_20810_16378.t1 efuse
X245 VSS.t61 BIT_SEL[20].t2 a_7830_52657.t0 VSS.t0 nfet_06v0 ad=13.42p pd=61.88u as=13.42p ps=61.88u w=30.5u l=0.6u
X246 a_14320_38697.t1 a_638_35272.t39 efuse
X247 a_110_11079.t0 PRESET_N.t3 VDD VDD pfet_06v0 ad=0.5368p pd=3.32u as=0.3172p ps=1.74u w=1.22u l=0.5u
X248 a_1340_17275.t0 BIT_SEL[9].t3 VSS.t88 VSS.t5 nfet_06v0 ad=13.42p pd=61.88u as=13.42p ps=61.88u w=30.5u l=0.6u
X249 a_1248_35589.t1 a_638_35272.t68 efuse
X250 a_638_11641.t57 a_7830_8133.t1 efuse
X251 VDD a_110_16188.t1 a_154_16100.t0 VDD pfet_06v0 ad=0.5368p pd=3.32u as=0.5368p ps=3.32u w=1.22u l=1u
X252 a_638_58903.t21 a_14320_56291.t1 efuse
X253 a_14320_39641.t0 BIT_SEL[47].t0 VSS.t614 VSS.t41 nfet_06v0 ad=13.42p pd=61.88u as=13.42p ps=61.88u w=30.5u l=0.6u
X254 a_7830_54451.t1 a_638_51026.t7 efuse
X255 a_7830_40906.t1 BIT_SEL[25].t2 VSS.t280 VSS.t0 nfet_06v0 ad=13.42p pd=61.88u as=13.42p ps=61.88u w=30.5u l=0.6u
X256 VSS.t129 BIT_SEL[26].t0 a_7830_38168.t1 VSS.t0 nfet_06v0 ad=13.42p pd=61.88u as=13.42p ps=61.88u w=30.5u l=0.6u
X257 a_638_35272.t10 a_20810_32132.t0 efuse
X258 a_1340_17643.t0 BIT_SEL[7].t2 VSS.t519 VSS.t5 nfet_06v0 ad=13.42p pd=61.88u as=13.42p ps=61.88u w=30.5u l=0.6u
X259 a_20810_7189.t0 a_638_3764.t4 efuse
X260 VDD a_110_34710.t7 a_110_33814.t0 VDD pfet_06v0 ad=0.5368p pd=3.32u as=0.5368p ps=3.32u w=1.22u l=0.5u
X261 a_7830_26417.t0 BIT_SEL[19].t1 VSS.t408 VSS.t0 nfet_06v0 ad=13.42p pd=61.88u as=13.42p ps=61.88u w=30.5u l=0.6u
X262 a_110_60949.t0 a_154_60861.t1 VSS.t161 VSS.t31 nfet_06v0 ad=0.3608p pd=2.52u as=0.3608p ps=2.52u w=0.82u l=1u
X263 a_638_51026.t0 a_14320_50048.t0 efuse
X264 a_110_44075.t0 a_154_43987.t1 VSS.t566 VSS.t31 nfet_06v0 ad=0.3608p pd=2.52u as=0.3608p ps=2.52u w=0.82u l=1u
X265 a_638_19518.t48 a_1340_16010.t1 efuse
X266 a_14320_12904.t0 a_638_11641.t3 efuse
X267 a_14320_48414.t0 BIT_SEL[43].t1 VSS.t575 VSS.t41 nfet_06v0 ad=13.42p pd=61.88u as=13.42p ps=61.88u w=30.5u l=0.6u
X268 a_638_27395.t11 a_7830_23887.t0 efuse
X269 a_7830_26785.t1 BIT_SEL[17].t1 VSS.t261 VSS.t0 nfet_06v0 ad=13.42p pd=61.88u as=13.42p ps=61.88u w=30.5u l=0.6u
X270 a_20718_51343.t0 a_638_51026.t23 efuse
X271 a_110_42587.t1 PRESET_N.t4 VDD VDD pfet_06v0 ad=0.5368p pd=3.32u as=0.3172p ps=1.74u w=1.22u l=0.5u
X272 VSS.t382 BIT_SEL[60].t1 a_20810_38697.t0 VSS.t20 nfet_06v0 ad=13.42p pd=61.88u as=13.42p ps=61.88u w=30.5u l=0.6u
X273 VDD a_110_24961.t1 a_154_24873.t0 VDD pfet_06v0 ad=0.5368p pd=3.32u as=0.5368p ps=3.32u w=1.22u l=1u
X274 VSS.t53 BIT_SEL[40].t4 a_14320_22046.t0 VSS.t41 nfet_06v0 ad=13.42p pd=61.88u as=13.42p ps=61.88u w=30.5u l=0.6u
X275 a_7830_8501.t0 BIT_SEL[29].t0 VSS.t307 VSS.t0 nfet_06v0 ad=13.42p pd=61.88u as=13.42p ps=61.88u w=30.5u l=0.6u
X276 a_638_35272.t35 a_1340_31764.t1 efuse
X277 VSS.t268 BIT_SEL[16].t2 a_7738_19835.t1 VSS.t0 nfet_06v0 ad=13.42p pd=61.88u as=13.42p ps=61.88u w=30.5u l=0.6u
X278 a_638_43149.t11 a_7830_39641.t0 efuse
X279 a_14320_28658.t0 a_638_27395.t10 efuse
X280 a_7830_5395.t1 a_638_3764.t26 efuse
X281 a_1340_62696.t1 a_638_58903.t16 efuse
X282 a_7830_42539.t1 BIT_SEL[17].t2 VSS.t262 VSS.t0 nfet_06v0 ad=13.42p pd=61.88u as=13.42p ps=61.88u w=30.5u l=0.6u
X283 a_638_19518.t3 a_20810_18908.t0 efuse
X284 a_638_19518.t2 a_20810_18171.t0 efuse
X285 a_1340_49151.t0 BIT_SEL[7].t3 VSS.t118 VSS.t5 nfet_06v0 ad=13.42p pd=61.88u as=13.42p ps=61.88u w=30.5u l=0.6u
X286 VDD a_110_40715.t1 a_154_40627.t0 VDD pfet_06v0 ad=0.5368p pd=3.32u as=0.5368p ps=3.32u w=1.22u l=1u
X287 VSS.t534 BIT_SEL[42].t2 a_14320_22414.t0 VSS.t41 nfet_06v0 ad=13.42p pd=61.88u as=13.42p ps=61.88u w=30.5u l=0.6u
X288 VSS.t383 BIT_SEL[60].t2 a_20810_54451.t0 VSS.t20 nfet_06v0 ad=13.42p pd=61.88u as=13.42p ps=61.88u w=30.5u l=0.6u
X289 VSS.t62 BIT_SEL[20].t3 a_7830_21149.t0 VSS.t0 nfet_06v0 ad=13.42p pd=61.88u as=13.42p ps=61.88u w=30.5u l=0.6u
X290 a_14320_9029.t0 BIT_SEL[43].t2 VSS.t576 VSS.t41 nfet_06v0 ad=13.42p pd=61.88u as=13.42p ps=61.88u w=30.5u l=0.6u
X291 a_14320_44412.t0 a_638_43149.t61 efuse
X292 a_638_3764.t6 COL_PROG_N[0].t2 VDD.t75 VDD.t2 pfet_06v0 ad=16.83p pd=77.38u as=9.945p ps=38.77u w=38.25u l=0.5u
X293 a_638_11641.t28 a_7830_9766.t0 efuse
X294 a_638_58903.t15 a_7830_57556.t1 efuse
X295 a_638_35272.t27 a_20810_33925.t0 efuse
X296 a_638_3764.t13 a_1340_2786.t0 efuse
X297 a_110_4690.t0 a_154_4602.t1 VSS.t33 VSS.t31 nfet_06v0 ad=0.3608p pd=2.52u as=0.3608p ps=2.52u w=0.82u l=1u
X298 a_14320_10663.t1 BIT_SEL[35].t1 VSS.t452 VSS.t41 nfet_06v0 ad=13.42p pd=61.88u as=13.42p ps=61.88u w=30.5u l=0.6u
X299 a_110_13687.t0 a_154_13599.t1 VSS.t572 VSS.t31 nfet_06v0 ad=0.3608p pd=2.52u as=0.3608p ps=2.52u w=0.82u l=1u
X300 VDD a_110_62741.t1 a_154_62653.t0 VDD pfet_06v0 ad=0.5368p pd=3.32u as=0.5368p ps=3.32u w=1.22u l=1u
X301 a_638_58903.t17 a_7830_58293.t0 efuse
X302 a_1340_52289.t0 a_638_51026.t1 efuse
X303 a_20810_40009.t0 BIT_SEL[61].t0 VSS.t303 VSS.t20 nfet_06v0 ad=13.42p pd=61.88u as=13.42p ps=61.88u w=30.5u l=0.6u
X304 a_638_35272.t9 a_20810_34662.t0 efuse
X305 VDD a_110_7602.t1 a_154_7514.t0 VDD pfet_06v0 ad=0.5368p pd=3.32u as=0.5368p ps=3.32u w=1.22u l=1u
X306 VSS.t175 BIT_SEL[62].t1 a_20810_54819.t0 VSS.t20 nfet_06v0 ad=13.42p pd=61.88u as=13.42p ps=61.88u w=30.5u l=0.6u
X307 a_7830_58293.t1 BIT_SEL[17].t3 VSS.t263 VSS.t0 nfet_06v0 ad=13.42p pd=61.88u as=13.42p ps=61.88u w=30.5u l=0.6u
X308 a_638_19518.t8 a_1340_17643.t1 efuse
X309 a_14320_11031.t1 BIT_SEL[33].t1 VSS.t586 VSS.t41 nfet_06v0 ad=13.42p pd=61.88u as=13.42p ps=61.88u w=30.5u l=0.6u
X310 a_638_51026.t31 SENSE.t4 a_110_50464.t5 VSS.t31 nfet_06v0 ad=0.3608p pd=2.52u as=0.3608p ps=2.52u w=0.82u l=0.6u
X311 a_638_27395.t67 a_7830_25520.t1 efuse
X312 VSS.t313 BIT_SEL[54].t3 a_20810_21678.t1 VSS.t20 nfet_06v0 ad=13.42p pd=61.88u as=13.42p ps=61.88u w=30.5u l=0.6u
X313 a_638_3764.t17 a_7830_1521.t0 efuse
X314 a_638_51026.t26 a_14320_47518.t0 efuse
X315 a_14320_7557.t0 a_638_3764.t2 efuse
X316 VSS.t535 BIT_SEL[42].t3 a_14320_53922.t1 VSS.t41 nfet_06v0 ad=13.42p pd=61.88u as=13.42p ps=61.88u w=30.5u l=0.6u
X317 a_638_35272.t18 a_1340_33397.t1 efuse
X318 VDD a_110_2306.t3 a_110_3202.t3 VDD pfet_06v0 ad=0.5368p pd=3.32u as=0.5368p ps=3.32u w=1.22u l=0.5u
X319 a_638_43149.t3 a_7830_41274.t0 efuse
X320 VDD a_110_36198.t1 a_154_36110.t0 VDD pfet_06v0 ad=0.5368p pd=3.32u as=0.5368p ps=3.32u w=1.22u l=1u
X321 a_1340_32132.t0 BIT_SEL[13].t2 VSS.t249 VSS.t5 nfet_06v0 ad=13.42p pd=61.88u as=13.42p ps=61.88u w=30.5u l=0.6u
X322 a_110_45195.t0 a_154_45107.t1 VSS.t360 VSS.t31 nfet_06v0 ad=0.3608p pd=2.52u as=0.3608p ps=2.52u w=0.82u l=1u